
*** ChampSim Multicore Out-of-Order Simulator ***

Warmup Instructions: 50000000
Simulation Instructions: 1500000000
Number of CPUs: 1
Off-chip DRAM Size: 4 GiB Channels: 1 Width: 64-bit Data Rate: 3200 MT/s

VirtualMemory physical capacity: 8588881920 num_ppages: 2096895
VirtualMemory page size: 4096 log2_page_size: 12

CPU 0 runs traces/603.bwaves_s-891B.champsimtrace.xz
CPU 0 Bimodal branch predictor
Basic BTB sets: 1024 ways: 8 indirect buffer size: 4096 RAS size: 64
Initializing LRU.
Initializing LRU.
Initializing LRU.
Initializing LRU.
Initializing rdLRU.
Initializing LRU.
Initializing LRU.
Heartbeat CPU 0 instructions: 2000003 cycles: 500075 heartbeat IPC: 3.99941 cumulative IPC: 3.99941 (Simulation time: 0 hr 0 min 31 sec) 
Heartbeat CPU 0 instructions: 4000003 cycles: 1000075 heartbeat IPC: 4 cumulative IPC: 3.9997 (Simulation time: 0 hr 1 min 10 sec) 
Heartbeat CPU 0 instructions: 6000003 cycles: 1500075 heartbeat IPC: 4 cumulative IPC: 3.9998 (Simulation time: 0 hr 1 min 49 sec) 
Heartbeat CPU 0 instructions: 8000003 cycles: 2000075 heartbeat IPC: 4 cumulative IPC: 3.99985 (Simulation time: 0 hr 2 min 30 sec) 
Heartbeat CPU 0 instructions: 10000003 cycles: 2500075 heartbeat IPC: 4 cumulative IPC: 3.99988 (Simulation time: 0 hr 3 min 12 sec) 
Heartbeat CPU 0 instructions: 12000003 cycles: 3000075 heartbeat IPC: 4 cumulative IPC: 3.9999 (Simulation time: 0 hr 3 min 53 sec) 
Heartbeat CPU 0 instructions: 14000003 cycles: 3500075 heartbeat IPC: 4 cumulative IPC: 3.99992 (Simulation time: 0 hr 4 min 35 sec) 
Heartbeat CPU 0 instructions: 16000003 cycles: 4000075 heartbeat IPC: 4 cumulative IPC: 3.99993 (Simulation time: 0 hr 5 min 15 sec) 
Heartbeat CPU 0 instructions: 18000003 cycles: 4500075 heartbeat IPC: 4 cumulative IPC: 3.99993 (Simulation time: 0 hr 5 min 57 sec) 
Heartbeat CPU 0 instructions: 20000003 cycles: 5000075 heartbeat IPC: 4 cumulative IPC: 3.99994 (Simulation time: 0 hr 6 min 40 sec) 
Heartbeat CPU 0 instructions: 22000003 cycles: 5500075 heartbeat IPC: 4 cumulative IPC: 3.99995 (Simulation time: 0 hr 7 min 23 sec) 
Heartbeat CPU 0 instructions: 24000003 cycles: 6000075 heartbeat IPC: 4 cumulative IPC: 3.99995 (Simulation time: 0 hr 8 min 7 sec) 
Heartbeat CPU 0 instructions: 26000003 cycles: 6500075 heartbeat IPC: 4 cumulative IPC: 3.99995 (Simulation time: 0 hr 8 min 50 sec) 
Heartbeat CPU 0 instructions: 28000003 cycles: 7000075 heartbeat IPC: 4 cumulative IPC: 3.99996 (Simulation time: 0 hr 9 min 33 sec) 
Heartbeat CPU 0 instructions: 30000003 cycles: 7500075 heartbeat IPC: 4 cumulative IPC: 3.99996 (Simulation time: 0 hr 10 min 17 sec) 
Heartbeat CPU 0 instructions: 32000003 cycles: 8000075 heartbeat IPC: 4 cumulative IPC: 3.99996 (Simulation time: 0 hr 10 min 54 sec) 
Heartbeat CPU 0 instructions: 34000003 cycles: 8500075 heartbeat IPC: 4 cumulative IPC: 3.99996 (Simulation time: 0 hr 11 min 27 sec) 
Heartbeat CPU 0 instructions: 36000003 cycles: 9000075 heartbeat IPC: 4 cumulative IPC: 3.99997 (Simulation time: 0 hr 12 min 1 sec) 
Heartbeat CPU 0 instructions: 38000003 cycles: 9500075 heartbeat IPC: 4 cumulative IPC: 3.99997 (Simulation time: 0 hr 12 min 37 sec) 
Heartbeat CPU 0 instructions: 40000003 cycles: 10000075 heartbeat IPC: 4 cumulative IPC: 3.99997 (Simulation time: 0 hr 13 min 10 sec) 
Heartbeat CPU 0 instructions: 42000003 cycles: 10500075 heartbeat IPC: 4 cumulative IPC: 3.99997 (Simulation time: 0 hr 13 min 43 sec) 
Heartbeat CPU 0 instructions: 44000003 cycles: 11000075 heartbeat IPC: 4 cumulative IPC: 3.99997 (Simulation time: 0 hr 14 min 14 sec) 
Heartbeat CPU 0 instructions: 46000003 cycles: 11500075 heartbeat IPC: 4 cumulative IPC: 3.99997 (Simulation time: 0 hr 14 min 45 sec) 
Heartbeat CPU 0 instructions: 48000003 cycles: 12000075 heartbeat IPC: 4 cumulative IPC: 3.99998 (Simulation time: 0 hr 15 min 16 sec) 
Heartbeat CPU 0 instructions: 50000003 cycles: 12500075 heartbeat IPC: 4 cumulative IPC: 3.99998 (Simulation time: 0 hr 15 min 48 sec) 

Warmup complete CPU 0 instructions: 50000003 cycles: 12500075 (Simulation time: 0 hr 15 min 48 sec) 

Heartbeat CPU 0 instructions: 52000003 cycles: 13858140 heartbeat IPC: 1.47268 cumulative IPC: 1.47268 (Simulation time: 0 hr 16 min 39 sec) 

Region of Interest Statistics
cpu0_DTLB TOTAL     ACCESS:     245004  HIT:     244514  MISS:        490
cpu0_DTLB LOAD      ACCESS:     197149  HIT:     196659  MISS:        490
cpu0_DTLB RFO       ACCESS:      47855  HIT:      47855  MISS:          0
cpu0_DTLB PREFETCH  ACCESS:          0  HIT:          0  MISS:          0
cpu0_DTLB WRITEBACK ACCESS:          0  HIT:          0  MISS:          0
cpu0_ITLB TOTAL     ACCESS:     199925  HIT:     199925  MISS:          0
cpu0_ITLB LOAD      ACCESS:     199925  HIT:     199925  MISS:          0
cpu0_ITLB RFO       ACCESS:          0  HIT:          0  MISS:          0
cpu0_ITLB PREFETCH  ACCESS:          0  HIT:          0  MISS:          0
cpu0_ITLB WRITEBACK ACCESS:          0  HIT:          0  MISS:          0
cpu0_STLB TOTAL     ACCESS:        490  HIT:          3  MISS:        487
cpu0_STLB LOAD      ACCESS:        490  HIT:          3  MISS:        487
cpu0_STLB RFO       ACCESS:          0  HIT:          0  MISS:          0
cpu0_STLB PREFETCH  ACCESS:          0  HIT:          0  MISS:          0
cpu0_STLB WRITEBACK ACCESS:          0  HIT:          0  MISS:          0
cpu0_L1D TOTAL     ACCESS:     132944  HIT:     101773  MISS:      31171
cpu0_L1D LOAD      ACCESS:      82586  HIT:      51415  MISS:      31171
cpu0_L1D RFO       ACCESS:      49871  HIT:      49871  MISS:          0
cpu0_L1D PREFETCH  ACCESS:          0  HIT:          0  MISS:          0
cpu0_L1D WRITEBACK ACCESS:          0  HIT:          0  MISS:          0
cpu0_L2C TOTAL     ACCESS:      31171  HIT:          2  MISS:      31169
cpu0_L2C LOAD      ACCESS:      31171  HIT:          2  MISS:      31169
cpu0_L2C RFO       ACCESS:          0  HIT:          0  MISS:          0
cpu0_L2C PREFETCH  ACCESS:          0  HIT:          0  MISS:          0
cpu0_L2C WRITEBACK ACCESS:          0  HIT:          0  MISS:          0
LLC TOTAL     ACCESS:      31169  HIT:          0  MISS:      31169
LLC LOAD      ACCESS:      31169  HIT:          0  MISS:      31169
LLC RFO       ACCESS:          0  HIT:          0  MISS:          0
LLC PREFETCH  ACCESS:          0  HIT:          0  MISS:          0
LLC WRITEBACK ACCESS:          0  HIT:          0  MISS:          0
Heartbeat CPU 0 instructions: 54000000 cycles: 15216942 heartbeat IPC: 1.47188 cumulative IPC: 1.47228 (Simulation time: 0 hr 17 min 31 sec) 

Region of Interest Statistics
cpu0_DTLB TOTAL     ACCESS:     490056  HIT:     489075  MISS:        981
cpu0_DTLB LOAD      ACCESS:     394330  HIT:     393349  MISS:        981
cpu0_DTLB RFO       ACCESS:      95726  HIT:      95726  MISS:          0
cpu0_DTLB PREFETCH  ACCESS:          0  HIT:          0  MISS:          0
cpu0_DTLB WRITEBACK ACCESS:          0  HIT:          0  MISS:          0
cpu0_ITLB TOTAL     ACCESS:     399886  HIT:     399886  MISS:          0
cpu0_ITLB LOAD      ACCESS:     399886  HIT:     399886  MISS:          0
cpu0_ITLB RFO       ACCESS:          0  HIT:          0  MISS:          0
cpu0_ITLB PREFETCH  ACCESS:          0  HIT:          0  MISS:          0
cpu0_ITLB WRITEBACK ACCESS:          0  HIT:          0  MISS:          0
cpu0_STLB TOTAL     ACCESS:        981  HIT:          7  MISS:        974
cpu0_STLB LOAD      ACCESS:        981  HIT:          7  MISS:        974
cpu0_STLB RFO       ACCESS:          0  HIT:          0  MISS:          0
cpu0_STLB PREFETCH  ACCESS:          0  HIT:          0  MISS:          0
cpu0_STLB WRITEBACK ACCESS:          0  HIT:          0  MISS:          0
cpu0_L1D TOTAL     ACCESS:     265910  HIT:     203560  MISS:      62350
cpu0_L1D LOAD      ACCESS:     165192  HIT:     102842  MISS:      62350
cpu0_L1D RFO       ACCESS:      99744  HIT:      99744  MISS:          0
cpu0_L1D PREFETCH  ACCESS:          0  HIT:          0  MISS:          0
cpu0_L1D WRITEBACK ACCESS:          0  HIT:          0  MISS:          0
cpu0_L2C TOTAL     ACCESS:      62350  HIT:          5  MISS:      62345
cpu0_L2C LOAD      ACCESS:      62350  HIT:          5  MISS:      62345
cpu0_L2C RFO       ACCESS:          0  HIT:          0  MISS:          0
cpu0_L2C PREFETCH  ACCESS:          0  HIT:          0  MISS:          0
cpu0_L2C WRITEBACK ACCESS:          0  HIT:          0  MISS:          0
LLC TOTAL     ACCESS:      62345  HIT:          0  MISS:      62345
LLC LOAD      ACCESS:      62345  HIT:          0  MISS:      62345
LLC RFO       ACCESS:          0  HIT:          0  MISS:          0
LLC PREFETCH  ACCESS:          0  HIT:          0  MISS:          0
LLC WRITEBACK ACCESS:          0  HIT:          0  MISS:          0
Heartbeat CPU 0 instructions: 56000000 cycles: 16574928 heartbeat IPC: 1.47277 cumulative IPC: 1.47245 (Simulation time: 0 hr 18 min 20 sec) 

Region of Interest Statistics
cpu0_DTLB TOTAL     ACCESS:     735192  HIT:     733721  MISS:       1471
cpu0_DTLB LOAD      ACCESS:     591613  HIT:     590142  MISS:       1471
cpu0_DTLB RFO       ACCESS:     143579  HIT:     143579  MISS:          0
cpu0_DTLB PREFETCH  ACCESS:          0  HIT:          0  MISS:          0
cpu0_DTLB WRITEBACK ACCESS:          0  HIT:          0  MISS:          0
cpu0_ITLB TOTAL     ACCESS:     599850  HIT:     599850  MISS:          0
cpu0_ITLB LOAD      ACCESS:     599850  HIT:     599850  MISS:          0
cpu0_ITLB RFO       ACCESS:          0  HIT:          0  MISS:          0
cpu0_ITLB PREFETCH  ACCESS:          0  HIT:          0  MISS:          0
cpu0_ITLB WRITEBACK ACCESS:          0  HIT:          0  MISS:          0
cpu0_STLB TOTAL     ACCESS:       1471  HIT:         10  MISS:       1461
cpu0_STLB LOAD      ACCESS:       1471  HIT:         10  MISS:       1461
cpu0_STLB RFO       ACCESS:          0  HIT:          0  MISS:          0
cpu0_STLB PREFETCH  ACCESS:          0  HIT:          0  MISS:          0
cpu0_STLB WRITEBACK ACCESS:          0  HIT:          0  MISS:          0
cpu0_L1D TOTAL     ACCESS:     398867  HIT:     305340  MISS:      93527
cpu0_L1D LOAD      ACCESS:     247790  HIT:     154264  MISS:      93526
cpu0_L1D RFO       ACCESS:     149616  HIT:     149616  MISS:          0
cpu0_L1D PREFETCH  ACCESS:          0  HIT:          0  MISS:          0
cpu0_L1D WRITEBACK ACCESS:          0  HIT:          0  MISS:          0
cpu0_L2C TOTAL     ACCESS:      93527  HIT:          8  MISS:      93519
cpu0_L2C LOAD      ACCESS:      93526  HIT:          8  MISS:      93518
cpu0_L2C RFO       ACCESS:          0  HIT:          0  MISS:          0
cpu0_L2C PREFETCH  ACCESS:          0  HIT:          0  MISS:          0
cpu0_L2C WRITEBACK ACCESS:          0  HIT:          0  MISS:          0
LLC TOTAL     ACCESS:      93519  HIT:          0  MISS:      93519
LLC LOAD      ACCESS:      93518  HIT:          0  MISS:      93518
LLC RFO       ACCESS:          0  HIT:          0  MISS:          0
LLC PREFETCH  ACCESS:          0  HIT:          0  MISS:          0
LLC WRITEBACK ACCESS:          0  HIT:          0  MISS:          0
Heartbeat CPU 0 instructions: 58000000 cycles: 17932195 heartbeat IPC: 1.47355 cumulative IPC: 1.47272 (Simulation time: 0 hr 19 min 11 sec) 

Region of Interest Statistics
cpu0_DTLB TOTAL     ACCESS:     980397  HIT:     978435  MISS:       1962
cpu0_DTLB LOAD      ACCESS:     788990  HIT:     787028  MISS:       1962
cpu0_DTLB RFO       ACCESS:     191407  HIT:     191407  MISS:          0
cpu0_DTLB PREFETCH  ACCESS:          0  HIT:          0  MISS:          0
cpu0_DTLB WRITEBACK ACCESS:          0  HIT:          0  MISS:          0
cpu0_ITLB TOTAL     ACCESS:     799811  HIT:     799811  MISS:          0
cpu0_ITLB LOAD      ACCESS:     799811  HIT:     799811  MISS:          0
cpu0_ITLB RFO       ACCESS:          0  HIT:          0  MISS:          0
cpu0_ITLB PREFETCH  ACCESS:          0  HIT:          0  MISS:          0
cpu0_ITLB WRITEBACK ACCESS:          0  HIT:          0  MISS:          0
cpu0_STLB TOTAL     ACCESS:       1962  HIT:         14  MISS:       1948
cpu0_STLB LOAD      ACCESS:       1962  HIT:         14  MISS:       1948
cpu0_STLB RFO       ACCESS:          0  HIT:          0  MISS:          0
cpu0_STLB PREFETCH  ACCESS:          0  HIT:          0  MISS:          0
cpu0_STLB WRITEBACK ACCESS:          0  HIT:          0  MISS:          0
cpu0_L1D TOTAL     ACCESS:     531827  HIT:     407122  MISS:     124705
cpu0_L1D LOAD      ACCESS:     330391  HIT:     205687  MISS:     124704
cpu0_L1D RFO       ACCESS:     199488  HIT:     199488  MISS:          0
cpu0_L1D PREFETCH  ACCESS:          0  HIT:          0  MISS:          0
cpu0_L1D WRITEBACK ACCESS:          0  HIT:          0  MISS:          0
cpu0_L2C TOTAL     ACCESS:     124705  HIT:         11  MISS:     124694
cpu0_L2C LOAD      ACCESS:     124704  HIT:         11  MISS:     124693
cpu0_L2C RFO       ACCESS:          0  HIT:          0  MISS:          0
cpu0_L2C PREFETCH  ACCESS:          0  HIT:          0  MISS:          0
cpu0_L2C WRITEBACK ACCESS:          0  HIT:          0  MISS:          0
LLC TOTAL     ACCESS:     124694  HIT:          0  MISS:     124694
LLC LOAD      ACCESS:     124693  HIT:          0  MISS:     124693
LLC RFO       ACCESS:          0  HIT:          0  MISS:          0
LLC PREFETCH  ACCESS:          0  HIT:          0  MISS:          0
LLC WRITEBACK ACCESS:          0  HIT:          0  MISS:          0
Heartbeat CPU 0 instructions: 60000000 cycles: 19291676 heartbeat IPC: 1.47115 cumulative IPC: 1.47241 (Simulation time: 0 hr 19 min 59 sec) 

Region of Interest Statistics
cpu0_DTLB TOTAL     ACCESS:    1225337  HIT:    1222884  MISS:       2453
cpu0_DTLB LOAD      ACCESS:     986026  HIT:     983573  MISS:       2453
cpu0_DTLB RFO       ACCESS:     239311  HIT:     239311  MISS:          0
cpu0_DTLB PREFETCH  ACCESS:          0  HIT:          0  MISS:          0
cpu0_DTLB WRITEBACK ACCESS:          0  HIT:          0  MISS:          0
cpu0_ITLB TOTAL     ACCESS:     999769  HIT:     999769  MISS:          0
cpu0_ITLB LOAD      ACCESS:     999769  HIT:     999769  MISS:          0
cpu0_ITLB RFO       ACCESS:          0  HIT:          0  MISS:          0
cpu0_ITLB PREFETCH  ACCESS:          0  HIT:          0  MISS:          0
cpu0_ITLB WRITEBACK ACCESS:          0  HIT:          0  MISS:          0
cpu0_STLB TOTAL     ACCESS:       2453  HIT:         18  MISS:       2435
cpu0_STLB LOAD      ACCESS:       2453  HIT:         18  MISS:       2435
cpu0_STLB RFO       ACCESS:          0  HIT:          0  MISS:          0
cpu0_STLB PREFETCH  ACCESS:          0  HIT:          0  MISS:          0
cpu0_STLB WRITEBACK ACCESS:          0  HIT:          0  MISS:          0
cpu0_L1D TOTAL     ACCESS:     664786  HIT:     508904  MISS:     155882
cpu0_L1D LOAD      ACCESS:     412992  HIT:     257111  MISS:     155881
cpu0_L1D RFO       ACCESS:     249359  HIT:     249359  MISS:          0
cpu0_L1D PREFETCH  ACCESS:          0  HIT:          0  MISS:          0
cpu0_L1D WRITEBACK ACCESS:          0  HIT:          0  MISS:          0
cpu0_L2C TOTAL     ACCESS:     155882  HIT:         15  MISS:     155867
cpu0_L2C LOAD      ACCESS:     155881  HIT:         15  MISS:     155866
cpu0_L2C RFO       ACCESS:          0  HIT:          0  MISS:          0
cpu0_L2C PREFETCH  ACCESS:          0  HIT:          0  MISS:          0
cpu0_L2C WRITEBACK ACCESS:          0  HIT:          0  MISS:          0
LLC TOTAL     ACCESS:     155867  HIT:          0  MISS:     155867
LLC LOAD      ACCESS:     155866  HIT:          0  MISS:     155866
LLC RFO       ACCESS:          0  HIT:          0  MISS:          0
LLC PREFETCH  ACCESS:          0  HIT:          0  MISS:          0
LLC WRITEBACK ACCESS:          0  HIT:          0  MISS:          0
Heartbeat CPU 0 instructions: 62000000 cycles: 20649800 heartbeat IPC: 1.47262 cumulative IPC: 1.47244 (Simulation time: 0 hr 20 min 48 sec) 

Region of Interest Statistics
cpu0_DTLB TOTAL     ACCESS:    1470403  HIT:    1467460  MISS:       2943
cpu0_DTLB LOAD      ACCESS:    1183233  HIT:    1180290  MISS:       2943
cpu0_DTLB RFO       ACCESS:     287170  HIT:     287170  MISS:          0
cpu0_DTLB PREFETCH  ACCESS:          0  HIT:          0  MISS:          0
cpu0_DTLB WRITEBACK ACCESS:          0  HIT:          0  MISS:          0
cpu0_ITLB TOTAL     ACCESS:    1199726  HIT:    1199726  MISS:          0
cpu0_ITLB LOAD      ACCESS:    1199726  HIT:    1199726  MISS:          0
cpu0_ITLB RFO       ACCESS:          0  HIT:          0  MISS:          0
cpu0_ITLB PREFETCH  ACCESS:          0  HIT:          0  MISS:          0
cpu0_ITLB WRITEBACK ACCESS:          0  HIT:          0  MISS:          0
cpu0_STLB TOTAL     ACCESS:       2943  HIT:         21  MISS:       2922
cpu0_STLB LOAD      ACCESS:       2943  HIT:         21  MISS:       2922
cpu0_STLB RFO       ACCESS:          0  HIT:          0  MISS:          0
cpu0_STLB PREFETCH  ACCESS:          0  HIT:          0  MISS:          0
cpu0_STLB WRITEBACK ACCESS:          0  HIT:          0  MISS:          0
cpu0_L1D TOTAL     ACCESS:     797744  HIT:     610686  MISS:     187058
cpu0_L1D LOAD      ACCESS:     495591  HIT:     308534  MISS:     187057
cpu0_L1D RFO       ACCESS:     299231  HIT:     299231  MISS:          0
cpu0_L1D PREFETCH  ACCESS:          0  HIT:          0  MISS:          0
cpu0_L1D WRITEBACK ACCESS:          0  HIT:          0  MISS:          0
cpu0_L2C TOTAL     ACCESS:     187058  HIT:         16  MISS:     187042
cpu0_L2C LOAD      ACCESS:     187057  HIT:         16  MISS:     187041
cpu0_L2C RFO       ACCESS:          0  HIT:          0  MISS:          0
cpu0_L2C PREFETCH  ACCESS:          0  HIT:          0  MISS:          0
cpu0_L2C WRITEBACK ACCESS:          0  HIT:          0  MISS:          0
LLC TOTAL     ACCESS:     187042  HIT:          1  MISS:     187041
LLC LOAD      ACCESS:     187041  HIT:          1  MISS:     187040
LLC RFO       ACCESS:          0  HIT:          0  MISS:          0
LLC PREFETCH  ACCESS:          0  HIT:          0  MISS:          0
LLC WRITEBACK ACCESS:          0  HIT:          0  MISS:          0
Heartbeat CPU 0 instructions: 64000002 cycles: 22008055 heartbeat IPC: 1.47248 cumulative IPC: 1.47245 (Simulation time: 0 hr 21 min 35 sec) 

Region of Interest Statistics
cpu0_DTLB TOTAL     ACCESS:    1715485  HIT:    1712051  MISS:       3434
cpu0_DTLB LOAD      ACCESS:    1380443  HIT:    1377009  MISS:       3434
cpu0_DTLB RFO       ACCESS:     335042  HIT:     335042  MISS:          0
cpu0_DTLB PREFETCH  ACCESS:          0  HIT:          0  MISS:          0
cpu0_DTLB WRITEBACK ACCESS:          0  HIT:          0  MISS:          0
cpu0_ITLB TOTAL     ACCESS:    1399693  HIT:    1399693  MISS:          0
cpu0_ITLB LOAD      ACCESS:    1399693  HIT:    1399693  MISS:          0
cpu0_ITLB RFO       ACCESS:          0  HIT:          0  MISS:          0
cpu0_ITLB PREFETCH  ACCESS:          0  HIT:          0  MISS:          0
cpu0_ITLB WRITEBACK ACCESS:          0  HIT:          0  MISS:          0
cpu0_STLB TOTAL     ACCESS:       3434  HIT:         25  MISS:       3409
cpu0_STLB LOAD      ACCESS:       3434  HIT:         25  MISS:       3409
cpu0_STLB RFO       ACCESS:          0  HIT:          0  MISS:          0
cpu0_STLB PREFETCH  ACCESS:          0  HIT:          0  MISS:          0
cpu0_STLB WRITEBACK ACCESS:          0  HIT:          0  MISS:          0
cpu0_L1D TOTAL     ACCESS:     930710  HIT:     712473  MISS:     218237
cpu0_L1D LOAD      ACCESS:     578197  HIT:     359961  MISS:     218236
cpu0_L1D RFO       ACCESS:     349104  HIT:     349104  MISS:          0
cpu0_L1D PREFETCH  ACCESS:          0  HIT:          0  MISS:          0
cpu0_L1D WRITEBACK ACCESS:          0  HIT:          0  MISS:          0
cpu0_L2C TOTAL     ACCESS:     218237  HIT:         19  MISS:     218218
cpu0_L2C LOAD      ACCESS:     218236  HIT:         19  MISS:     218217
cpu0_L2C RFO       ACCESS:          0  HIT:          0  MISS:          0
cpu0_L2C PREFETCH  ACCESS:          0  HIT:          0  MISS:          0
cpu0_L2C WRITEBACK ACCESS:          0  HIT:          0  MISS:          0
LLC TOTAL     ACCESS:     218218  HIT:          2  MISS:     218216
LLC LOAD      ACCESS:     218217  HIT:          2  MISS:     218215
LLC RFO       ACCESS:          0  HIT:          0  MISS:          0
LLC PREFETCH  ACCESS:          0  HIT:          0  MISS:          0
LLC WRITEBACK ACCESS:          0  HIT:          0  MISS:          0
Heartbeat CPU 0 instructions: 66000002 cycles: 23366766 heartbeat IPC: 1.47198 cumulative IPC: 1.47239 (Simulation time: 0 hr 22 min 25 sec) 

Region of Interest Statistics
cpu0_DTLB TOTAL     ACCESS:    1960481  HIT:    1956557  MISS:       3924
cpu0_DTLB LOAD      ACCESS:    1577555  HIT:    1573631  MISS:       3924
cpu0_DTLB RFO       ACCESS:     382926  HIT:     382926  MISS:          0
cpu0_DTLB PREFETCH  ACCESS:          0  HIT:          0  MISS:          0
cpu0_DTLB WRITEBACK ACCESS:          0  HIT:          0  MISS:          0
cpu0_ITLB TOTAL     ACCESS:    1599652  HIT:    1599652  MISS:          0
cpu0_ITLB LOAD      ACCESS:    1599652  HIT:    1599652  MISS:          0
cpu0_ITLB RFO       ACCESS:          0  HIT:          0  MISS:          0
cpu0_ITLB PREFETCH  ACCESS:          0  HIT:          0  MISS:          0
cpu0_ITLB WRITEBACK ACCESS:          0  HIT:          0  MISS:          0
cpu0_STLB TOTAL     ACCESS:       3924  HIT:         28  MISS:       3896
cpu0_STLB LOAD      ACCESS:       3924  HIT:         28  MISS:       3896
cpu0_STLB RFO       ACCESS:          0  HIT:          0  MISS:          0
cpu0_STLB PREFETCH  ACCESS:          0  HIT:          0  MISS:          0
cpu0_STLB WRITEBACK ACCESS:          0  HIT:          0  MISS:          0
cpu0_L1D TOTAL     ACCESS:    1063669  HIT:     814256  MISS:     249413
cpu0_L1D LOAD      ACCESS:     660797  HIT:     411385  MISS:     249412
cpu0_L1D RFO       ACCESS:     398976  HIT:     398976  MISS:          0
cpu0_L1D PREFETCH  ACCESS:          0  HIT:          0  MISS:          0
cpu0_L1D WRITEBACK ACCESS:          0  HIT:          0  MISS:          0
cpu0_L2C TOTAL     ACCESS:     249413  HIT:         22  MISS:     249391
cpu0_L2C LOAD      ACCESS:     249412  HIT:         22  MISS:     249390
cpu0_L2C RFO       ACCESS:          0  HIT:          0  MISS:          0
cpu0_L2C PREFETCH  ACCESS:          0  HIT:          0  MISS:          0
cpu0_L2C WRITEBACK ACCESS:          0  HIT:          0  MISS:          0
LLC TOTAL     ACCESS:     249391  HIT:          2  MISS:     249389
LLC LOAD      ACCESS:     249390  HIT:          2  MISS:     249388
LLC RFO       ACCESS:          0  HIT:          0  MISS:          0
LLC PREFETCH  ACCESS:          0  HIT:          0  MISS:          0
LLC WRITEBACK ACCESS:          0  HIT:          0  MISS:          0
Heartbeat CPU 0 instructions: 68000003 cycles: 24724393 heartbeat IPC: 1.47316 cumulative IPC: 1.47247 (Simulation time: 0 hr 23 min 16 sec) 

Region of Interest Statistics
cpu0_DTLB TOTAL     ACCESS:    2205593  HIT:    2201178  MISS:       4415
cpu0_DTLB LOAD      ACCESS:    1774814  HIT:    1770399  MISS:       4415
cpu0_DTLB RFO       ACCESS:     430779  HIT:     430779  MISS:          0
cpu0_DTLB PREFETCH  ACCESS:          0  HIT:          0  MISS:          0
cpu0_DTLB WRITEBACK ACCESS:          0  HIT:          0  MISS:          0
cpu0_ITLB TOTAL     ACCESS:    1799614  HIT:    1799614  MISS:          0
cpu0_ITLB LOAD      ACCESS:    1799614  HIT:    1799614  MISS:          0
cpu0_ITLB RFO       ACCESS:          0  HIT:          0  MISS:          0
cpu0_ITLB PREFETCH  ACCESS:          0  HIT:          0  MISS:          0
cpu0_ITLB WRITEBACK ACCESS:          0  HIT:          0  MISS:          0
cpu0_STLB TOTAL     ACCESS:       4415  HIT:         32  MISS:       4383
cpu0_STLB LOAD      ACCESS:       4415  HIT:         32  MISS:       4383
cpu0_STLB RFO       ACCESS:          0  HIT:          0  MISS:          0
cpu0_STLB PREFETCH  ACCESS:          0  HIT:          0  MISS:          0
cpu0_STLB WRITEBACK ACCESS:          0  HIT:          0  MISS:          0
cpu0_L1D TOTAL     ACCESS:    1196628  HIT:     916037  MISS:     280591
cpu0_L1D LOAD      ACCESS:     743397  HIT:     462807  MISS:     280590
cpu0_L1D RFO       ACCESS:     448848  HIT:     448848  MISS:          0
cpu0_L1D PREFETCH  ACCESS:          0  HIT:          0  MISS:          0
cpu0_L1D WRITEBACK ACCESS:          0  HIT:          0  MISS:          0
cpu0_L2C TOTAL     ACCESS:     280591  HIT:         26  MISS:     280565
cpu0_L2C LOAD      ACCESS:     280590  HIT:         26  MISS:     280564
cpu0_L2C RFO       ACCESS:          0  HIT:          0  MISS:          0
cpu0_L2C PREFETCH  ACCESS:          0  HIT:          0  MISS:          0
cpu0_L2C WRITEBACK ACCESS:          0  HIT:          0  MISS:          0
LLC TOTAL     ACCESS:     280565  HIT:          2  MISS:     280563
LLC LOAD      ACCESS:     280564  HIT:          2  MISS:     280562
LLC RFO       ACCESS:          0  HIT:          0  MISS:          0
LLC PREFETCH  ACCESS:          0  HIT:          0  MISS:          0
LLC WRITEBACK ACCESS:          0  HIT:          0  MISS:          0
Heartbeat CPU 0 instructions: 70000003 cycles: 26082944 heartbeat IPC: 1.47216 cumulative IPC: 1.47244 (Simulation time: 0 hr 24 min 5 sec) 

Region of Interest Statistics
cpu0_DTLB TOTAL     ACCESS:    2450621  HIT:    2445716  MISS:       4905
cpu0_DTLB LOAD      ACCESS:    1971960  HIT:    1967055  MISS:       4905
cpu0_DTLB RFO       ACCESS:     478661  HIT:     478661  MISS:          0
cpu0_DTLB PREFETCH  ACCESS:          0  HIT:          0  MISS:          0
cpu0_DTLB WRITEBACK ACCESS:          0  HIT:          0  MISS:          0
cpu0_ITLB TOTAL     ACCESS:    1999575  HIT:    1999575  MISS:          0
cpu0_ITLB LOAD      ACCESS:    1999575  HIT:    1999575  MISS:          0
cpu0_ITLB RFO       ACCESS:          0  HIT:          0  MISS:          0
cpu0_ITLB PREFETCH  ACCESS:          0  HIT:          0  MISS:          0
cpu0_ITLB WRITEBACK ACCESS:          0  HIT:          0  MISS:          0
cpu0_STLB TOTAL     ACCESS:       4905  HIT:         35  MISS:       4870
cpu0_STLB LOAD      ACCESS:       4905  HIT:         35  MISS:       4870
cpu0_STLB RFO       ACCESS:          0  HIT:          0  MISS:          0
cpu0_STLB PREFETCH  ACCESS:          0  HIT:          0  MISS:          0
cpu0_STLB WRITEBACK ACCESS:          0  HIT:          0  MISS:          0
cpu0_L1D TOTAL     ACCESS:    1329589  HIT:    1017822  MISS:     311767
cpu0_L1D LOAD      ACCESS:     825999  HIT:     514233  MISS:     311766
cpu0_L1D RFO       ACCESS:     498720  HIT:     498720  MISS:          0
cpu0_L1D PREFETCH  ACCESS:          0  HIT:          0  MISS:          0
cpu0_L1D WRITEBACK ACCESS:          0  HIT:          0  MISS:          0
cpu0_L2C TOTAL     ACCESS:     311767  HIT:         29  MISS:     311738
cpu0_L2C LOAD      ACCESS:     311766  HIT:         29  MISS:     311737
cpu0_L2C RFO       ACCESS:          0  HIT:          0  MISS:          0
cpu0_L2C PREFETCH  ACCESS:          0  HIT:          0  MISS:          0
cpu0_L2C WRITEBACK ACCESS:          0  HIT:          0  MISS:          0
LLC TOTAL     ACCESS:     311738  HIT:          2  MISS:     311736
LLC LOAD      ACCESS:     311737  HIT:          2  MISS:     311735
LLC RFO       ACCESS:          0  HIT:          0  MISS:          0
LLC PREFETCH  ACCESS:          0  HIT:          0  MISS:          0
LLC WRITEBACK ACCESS:          0  HIT:          0  MISS:          0
Heartbeat CPU 0 instructions: 72000003 cycles: 27440917 heartbeat IPC: 1.47278 cumulative IPC: 1.47247 (Simulation time: 0 hr 24 min 54 sec) 

Region of Interest Statistics
cpu0_DTLB TOTAL     ACCESS:    2695732  HIT:    2690336  MISS:       5396
cpu0_DTLB LOAD      ACCESS:    2169217  HIT:    2163821  MISS:       5396
cpu0_DTLB RFO       ACCESS:     526515  HIT:     526515  MISS:          0
cpu0_DTLB PREFETCH  ACCESS:          0  HIT:          0  MISS:          0
cpu0_DTLB WRITEBACK ACCESS:          0  HIT:          0  MISS:          0
cpu0_ITLB TOTAL     ACCESS:    2199531  HIT:    2199531  MISS:          0
cpu0_ITLB LOAD      ACCESS:    2199531  HIT:    2199531  MISS:          0
cpu0_ITLB RFO       ACCESS:          0  HIT:          0  MISS:          0
cpu0_ITLB PREFETCH  ACCESS:          0  HIT:          0  MISS:          0
cpu0_ITLB WRITEBACK ACCESS:          0  HIT:          0  MISS:          0
cpu0_STLB TOTAL     ACCESS:       5396  HIT:         39  MISS:       5357
cpu0_STLB LOAD      ACCESS:       5396  HIT:         39  MISS:       5357
cpu0_STLB RFO       ACCESS:          0  HIT:          0  MISS:          0
cpu0_STLB PREFETCH  ACCESS:          0  HIT:          0  MISS:          0
cpu0_STLB WRITEBACK ACCESS:          0  HIT:          0  MISS:          0
cpu0_L1D TOTAL     ACCESS:    1462544  HIT:    1119599  MISS:     342945
cpu0_L1D LOAD      ACCESS:     908595  HIT:     565651  MISS:     342944
cpu0_L1D RFO       ACCESS:     548592  HIT:     548592  MISS:          0
cpu0_L1D PREFETCH  ACCESS:          0  HIT:          0  MISS:          0
cpu0_L1D WRITEBACK ACCESS:          0  HIT:          0  MISS:          0
cpu0_L2C TOTAL     ACCESS:     342945  HIT:         29  MISS:     342916
cpu0_L2C LOAD      ACCESS:     342944  HIT:         29  MISS:     342915
cpu0_L2C RFO       ACCESS:          0  HIT:          0  MISS:          0
cpu0_L2C PREFETCH  ACCESS:          0  HIT:          0  MISS:          0
cpu0_L2C WRITEBACK ACCESS:          0  HIT:          0  MISS:          0
LLC TOTAL     ACCESS:     342916  HIT:          3  MISS:     342913
LLC LOAD      ACCESS:     342915  HIT:          3  MISS:     342912
LLC RFO       ACCESS:          0  HIT:          0  MISS:          0
LLC PREFETCH  ACCESS:          0  HIT:          0  MISS:          0
LLC WRITEBACK ACCESS:          0  HIT:          0  MISS:          0
Heartbeat CPU 0 instructions: 74000003 cycles: 28799246 heartbeat IPC: 1.4724 cumulative IPC: 1.47247 (Simulation time: 0 hr 25 min 43 sec) 

Region of Interest Statistics
cpu0_DTLB TOTAL     ACCESS:    2940810  HIT:    2934924  MISS:       5886
cpu0_DTLB LOAD      ACCESS:    2366417  HIT:    2360531  MISS:       5886
cpu0_DTLB RFO       ACCESS:     574393  HIT:     574393  MISS:          0
cpu0_DTLB PREFETCH  ACCESS:          0  HIT:          0  MISS:          0
cpu0_DTLB WRITEBACK ACCESS:          0  HIT:          0  MISS:          0
cpu0_ITLB TOTAL     ACCESS:    2399493  HIT:    2399493  MISS:          0
cpu0_ITLB LOAD      ACCESS:    2399493  HIT:    2399493  MISS:          0
cpu0_ITLB RFO       ACCESS:          0  HIT:          0  MISS:          0
cpu0_ITLB PREFETCH  ACCESS:          0  HIT:          0  MISS:          0
cpu0_ITLB WRITEBACK ACCESS:          0  HIT:          0  MISS:          0
cpu0_STLB TOTAL     ACCESS:       5886  HIT:         42  MISS:       5844
cpu0_STLB LOAD      ACCESS:       5886  HIT:         42  MISS:       5844
cpu0_STLB RFO       ACCESS:          0  HIT:          0  MISS:          0
cpu0_STLB PREFETCH  ACCESS:          0  HIT:          0  MISS:          0
cpu0_STLB WRITEBACK ACCESS:          0  HIT:          0  MISS:          0
cpu0_L1D TOTAL     ACCESS:    1595493  HIT:    1221371  MISS:     374122
cpu0_L1D LOAD      ACCESS:     991185  HIT:     617065  MISS:     374120
cpu0_L1D RFO       ACCESS:     598464  HIT:     598464  MISS:          0
cpu0_L1D PREFETCH  ACCESS:          0  HIT:          0  MISS:          0
cpu0_L1D WRITEBACK ACCESS:          0  HIT:          0  MISS:          0
cpu0_L2C TOTAL     ACCESS:     374122  HIT:         32  MISS:     374090
cpu0_L2C LOAD      ACCESS:     374120  HIT:         32  MISS:     374088
cpu0_L2C RFO       ACCESS:          0  HIT:          0  MISS:          0
cpu0_L2C PREFETCH  ACCESS:          0  HIT:          0  MISS:          0
cpu0_L2C WRITEBACK ACCESS:          0  HIT:          0  MISS:          0
LLC TOTAL     ACCESS:     374090  HIT:          4  MISS:     374086
LLC LOAD      ACCESS:     374088  HIT:          4  MISS:     374084
LLC RFO       ACCESS:          0  HIT:          0  MISS:          0
LLC PREFETCH  ACCESS:          0  HIT:          0  MISS:          0
LLC WRITEBACK ACCESS:          0  HIT:          0  MISS:          0
Heartbeat CPU 0 instructions: 76000004 cycles: 30158387 heartbeat IPC: 1.47152 cumulative IPC: 1.47239 (Simulation time: 0 hr 26 min 32 sec) 

Region of Interest Statistics
cpu0_DTLB TOTAL     ACCESS:    3185808  HIT:    3179431  MISS:       6377
cpu0_DTLB LOAD      ACCESS:    2563517  HIT:    2557140  MISS:       6377
cpu0_DTLB RFO       ACCESS:     622291  HIT:     622291  MISS:          0
cpu0_DTLB PREFETCH  ACCESS:          0  HIT:          0  MISS:          0
cpu0_DTLB WRITEBACK ACCESS:          0  HIT:          0  MISS:          0
cpu0_ITLB TOTAL     ACCESS:    2599455  HIT:    2599455  MISS:          0
cpu0_ITLB LOAD      ACCESS:    2599455  HIT:    2599455  MISS:          0
cpu0_ITLB RFO       ACCESS:          0  HIT:          0  MISS:          0
cpu0_ITLB PREFETCH  ACCESS:          0  HIT:          0  MISS:          0
cpu0_ITLB WRITEBACK ACCESS:          0  HIT:          0  MISS:          0
cpu0_STLB TOTAL     ACCESS:       6377  HIT:         46  MISS:       6331
cpu0_STLB LOAD      ACCESS:       6377  HIT:         46  MISS:       6331
cpu0_STLB RFO       ACCESS:          0  HIT:          0  MISS:          0
cpu0_STLB PREFETCH  ACCESS:          0  HIT:          0  MISS:          0
cpu0_STLB WRITEBACK ACCESS:          0  HIT:          0  MISS:          0
cpu0_L1D TOTAL     ACCESS:    1728457  HIT:    1323157  MISS:     405300
cpu0_L1D LOAD      ACCESS:    1073790  HIT:     668492  MISS:     405298
cpu0_L1D RFO       ACCESS:     648336  HIT:     648336  MISS:          0
cpu0_L1D PREFETCH  ACCESS:          0  HIT:          0  MISS:          0
cpu0_L1D WRITEBACK ACCESS:          0  HIT:          0  MISS:          0
cpu0_L2C TOTAL     ACCESS:     405300  HIT:         35  MISS:     405265
cpu0_L2C LOAD      ACCESS:     405298  HIT:         35  MISS:     405263
cpu0_L2C RFO       ACCESS:          0  HIT:          0  MISS:          0
cpu0_L2C PREFETCH  ACCESS:          0  HIT:          0  MISS:          0
cpu0_L2C WRITEBACK ACCESS:          0  HIT:          0  MISS:          0
LLC TOTAL     ACCESS:     405265  HIT:          4  MISS:     405261
LLC LOAD      ACCESS:     405263  HIT:          4  MISS:     405259
LLC RFO       ACCESS:          0  HIT:          0  MISS:          0
LLC PREFETCH  ACCESS:          0  HIT:          0  MISS:          0
LLC WRITEBACK ACCESS:          0  HIT:          0  MISS:          0
Heartbeat CPU 0 instructions: 78000004 cycles: 31515408 heartbeat IPC: 1.47382 cumulative IPC: 1.4725 (Simulation time: 0 hr 27 min 24 sec) 

Region of Interest Statistics
cpu0_DTLB TOTAL     ACCESS:    3431006  HIT:    3424139  MISS:       6867
cpu0_DTLB LOAD      ACCESS:    2760886  HIT:    2754019  MISS:       6867
cpu0_DTLB RFO       ACCESS:     670120  HIT:     670120  MISS:          0
cpu0_DTLB PREFETCH  ACCESS:          0  HIT:          0  MISS:          0
cpu0_DTLB WRITEBACK ACCESS:          0  HIT:          0  MISS:          0
cpu0_ITLB TOTAL     ACCESS:    2799414  HIT:    2799414  MISS:          0
cpu0_ITLB LOAD      ACCESS:    2799414  HIT:    2799414  MISS:          0
cpu0_ITLB RFO       ACCESS:          0  HIT:          0  MISS:          0
cpu0_ITLB PREFETCH  ACCESS:          0  HIT:          0  MISS:          0
cpu0_ITLB WRITEBACK ACCESS:          0  HIT:          0  MISS:          0
cpu0_STLB TOTAL     ACCESS:       6867  HIT:         49  MISS:       6818
cpu0_STLB LOAD      ACCESS:       6867  HIT:         49  MISS:       6818
cpu0_STLB RFO       ACCESS:          0  HIT:          0  MISS:          0
cpu0_STLB PREFETCH  ACCESS:          0  HIT:          0  MISS:          0
cpu0_STLB WRITEBACK ACCESS:          0  HIT:          0  MISS:          0
cpu0_L1D TOTAL     ACCESS:    1861410  HIT:    1424934  MISS:     436476
cpu0_L1D LOAD      ACCESS:    1156384  HIT:     719910  MISS:     436474
cpu0_L1D RFO       ACCESS:     698208  HIT:     698208  MISS:          0
cpu0_L1D PREFETCH  ACCESS:          0  HIT:          0  MISS:          0
cpu0_L1D WRITEBACK ACCESS:          0  HIT:          0  MISS:          0
cpu0_L2C TOTAL     ACCESS:     436476  HIT:         36  MISS:     436440
cpu0_L2C LOAD      ACCESS:     436474  HIT:         36  MISS:     436438
cpu0_L2C RFO       ACCESS:          0  HIT:          0  MISS:          0
cpu0_L2C PREFETCH  ACCESS:          0  HIT:          0  MISS:          0
cpu0_L2C WRITEBACK ACCESS:          0  HIT:          0  MISS:          0
LLC TOTAL     ACCESS:     436440  HIT:          5  MISS:     436435
LLC LOAD      ACCESS:     436438  HIT:          5  MISS:     436433
LLC RFO       ACCESS:          0  HIT:          0  MISS:          0
LLC PREFETCH  ACCESS:          0  HIT:          0  MISS:          0
LLC WRITEBACK ACCESS:          0  HIT:          0  MISS:          0
Heartbeat CPU 0 instructions: 80000000 cycles: 32873213 heartbeat IPC: 1.47296 cumulative IPC: 1.47253 (Simulation time: 0 hr 28 min 10 sec) 

Region of Interest Statistics
cpu0_DTLB TOTAL     ACCESS:    3676127  HIT:    3668769  MISS:       7358
cpu0_DTLB LOAD      ACCESS:    2958156  HIT:    2950798  MISS:       7358
cpu0_DTLB RFO       ACCESS:     717971  HIT:     717971  MISS:          0
cpu0_DTLB PREFETCH  ACCESS:          0  HIT:          0  MISS:          0
cpu0_DTLB WRITEBACK ACCESS:          0  HIT:          0  MISS:          0
cpu0_ITLB TOTAL     ACCESS:    2999376  HIT:    2999376  MISS:          0
cpu0_ITLB LOAD      ACCESS:    2999376  HIT:    2999376  MISS:          0
cpu0_ITLB RFO       ACCESS:          0  HIT:          0  MISS:          0
cpu0_ITLB PREFETCH  ACCESS:          0  HIT:          0  MISS:          0
cpu0_ITLB WRITEBACK ACCESS:          0  HIT:          0  MISS:          0
cpu0_STLB TOTAL     ACCESS:       7358  HIT:         53  MISS:       7305
cpu0_STLB LOAD      ACCESS:       7358  HIT:         53  MISS:       7305
cpu0_STLB RFO       ACCESS:          0  HIT:          0  MISS:          0
cpu0_STLB PREFETCH  ACCESS:          0  HIT:          0  MISS:          0
cpu0_STLB WRITEBACK ACCESS:          0  HIT:          0  MISS:          0
cpu0_L1D TOTAL     ACCESS:    1994372  HIT:    1526718  MISS:     467654
cpu0_L1D LOAD      ACCESS:    1238987  HIT:     771335  MISS:     467652
cpu0_L1D RFO       ACCESS:     748080  HIT:     748080  MISS:          0
cpu0_L1D PREFETCH  ACCESS:          0  HIT:          0  MISS:          0
cpu0_L1D WRITEBACK ACCESS:          0  HIT:          0  MISS:          0
cpu0_L2C TOTAL     ACCESS:     467654  HIT:         39  MISS:     467615
cpu0_L2C LOAD      ACCESS:     467652  HIT:         39  MISS:     467613
cpu0_L2C RFO       ACCESS:          0  HIT:          0  MISS:          0
cpu0_L2C PREFETCH  ACCESS:          0  HIT:          0  MISS:          0
cpu0_L2C WRITEBACK ACCESS:          0  HIT:          0  MISS:          0
LLC TOTAL     ACCESS:     467615  HIT:          6  MISS:     467609
LLC LOAD      ACCESS:     467613  HIT:          6  MISS:     467607
LLC RFO       ACCESS:          0  HIT:          0  MISS:          0
LLC PREFETCH  ACCESS:          0  HIT:          0  MISS:          0
LLC WRITEBACK ACCESS:          0  HIT:          0  MISS:          0
Heartbeat CPU 0 instructions: 82000002 cycles: 34230808 heartbeat IPC: 1.47319 cumulative IPC: 1.47257 (Simulation time: 0 hr 28 min 58 sec) 

Region of Interest Statistics
cpu0_DTLB TOTAL     ACCESS:    3921277  HIT:    3913429  MISS:       7848
cpu0_DTLB LOAD      ACCESS:    3155465  HIT:    3147617  MISS:       7848
cpu0_DTLB RFO       ACCESS:     765812  HIT:     765812  MISS:          0
cpu0_DTLB PREFETCH  ACCESS:          0  HIT:          0  MISS:          0
cpu0_DTLB WRITEBACK ACCESS:          0  HIT:          0  MISS:          0
cpu0_ITLB TOTAL     ACCESS:    3199336  HIT:    3199336  MISS:          0
cpu0_ITLB LOAD      ACCESS:    3199336  HIT:    3199336  MISS:          0
cpu0_ITLB RFO       ACCESS:          0  HIT:          0  MISS:          0
cpu0_ITLB PREFETCH  ACCESS:          0  HIT:          0  MISS:          0
cpu0_ITLB WRITEBACK ACCESS:          0  HIT:          0  MISS:          0
cpu0_STLB TOTAL     ACCESS:       7848  HIT:         56  MISS:       7792
cpu0_STLB LOAD      ACCESS:       7848  HIT:         56  MISS:       7792
cpu0_STLB RFO       ACCESS:          0  HIT:          0  MISS:          0
cpu0_STLB PREFETCH  ACCESS:          0  HIT:          0  MISS:          0
cpu0_STLB WRITEBACK ACCESS:          0  HIT:          0  MISS:          0
cpu0_L1D TOTAL     ACCESS:    2127325  HIT:    1628495  MISS:     498830
cpu0_L1D LOAD      ACCESS:    1321581  HIT:     822753  MISS:     498828
cpu0_L1D RFO       ACCESS:     797952  HIT:     797952  MISS:          0
cpu0_L1D PREFETCH  ACCESS:          0  HIT:          0  MISS:          0
cpu0_L1D WRITEBACK ACCESS:          0  HIT:          0  MISS:          0
cpu0_L2C TOTAL     ACCESS:     498830  HIT:         39  MISS:     498791
cpu0_L2C LOAD      ACCESS:     498828  HIT:         39  MISS:     498789
cpu0_L2C RFO       ACCESS:          0  HIT:          0  MISS:          0
cpu0_L2C PREFETCH  ACCESS:          0  HIT:          0  MISS:          0
cpu0_L2C WRITEBACK ACCESS:          0  HIT:          0  MISS:          0
LLC TOTAL     ACCESS:     498791  HIT:          7  MISS:     498784
LLC LOAD      ACCESS:     498789  HIT:          7  MISS:     498782
LLC RFO       ACCESS:          0  HIT:          0  MISS:          0
LLC PREFETCH  ACCESS:          0  HIT:          0  MISS:          0
LLC WRITEBACK ACCESS:          0  HIT:          0  MISS:          0
Heartbeat CPU 0 instructions: 84000000 cycles: 35589083 heartbeat IPC: 1.47245 cumulative IPC: 1.47256 (Simulation time: 0 hr 29 min 45 sec) 

Region of Interest Statistics
cpu0_DTLB TOTAL     ACCESS:    4166357  HIT:    4158018  MISS:       8339
cpu0_DTLB LOAD      ACCESS:    3352680  HIT:    3344341  MISS:       8339
cpu0_DTLB RFO       ACCESS:     813677  HIT:     813677  MISS:          0
cpu0_DTLB PREFETCH  ACCESS:          0  HIT:          0  MISS:          0
cpu0_DTLB WRITEBACK ACCESS:          0  HIT:          0  MISS:          0
cpu0_ITLB TOTAL     ACCESS:    3399296  HIT:    3399296  MISS:          0
cpu0_ITLB LOAD      ACCESS:    3399296  HIT:    3399296  MISS:          0
cpu0_ITLB RFO       ACCESS:          0  HIT:          0  MISS:          0
cpu0_ITLB PREFETCH  ACCESS:          0  HIT:          0  MISS:          0
cpu0_ITLB WRITEBACK ACCESS:          0  HIT:          0  MISS:          0
cpu0_STLB TOTAL     ACCESS:       8339  HIT:         60  MISS:       8279
cpu0_STLB LOAD      ACCESS:       8339  HIT:         60  MISS:       8279
cpu0_STLB RFO       ACCESS:          0  HIT:          0  MISS:          0
cpu0_STLB PREFETCH  ACCESS:          0  HIT:          0  MISS:          0
cpu0_STLB WRITEBACK ACCESS:          0  HIT:          0  MISS:          0
cpu0_L1D TOTAL     ACCESS:    2260284  HIT:    1730276  MISS:     530008
cpu0_L1D LOAD      ACCESS:    1404181  HIT:     874175  MISS:     530006
cpu0_L1D RFO       ACCESS:     847824  HIT:     847824  MISS:          0
cpu0_L1D PREFETCH  ACCESS:          0  HIT:          0  MISS:          0
cpu0_L1D WRITEBACK ACCESS:          0  HIT:          0  MISS:          0
cpu0_L2C TOTAL     ACCESS:     530008  HIT:         44  MISS:     529964
cpu0_L2C LOAD      ACCESS:     530006  HIT:         44  MISS:     529962
cpu0_L2C RFO       ACCESS:          0  HIT:          0  MISS:          0
cpu0_L2C PREFETCH  ACCESS:          0  HIT:          0  MISS:          0
cpu0_L2C WRITEBACK ACCESS:          0  HIT:          0  MISS:          0
LLC TOTAL     ACCESS:     529964  HIT:          7  MISS:     529957
LLC LOAD      ACCESS:     529962  HIT:          7  MISS:     529955
LLC RFO       ACCESS:          0  HIT:          0  MISS:          0
LLC PREFETCH  ACCESS:          0  HIT:          0  MISS:          0
LLC WRITEBACK ACCESS:          0  HIT:          0  MISS:          0
Heartbeat CPU 0 instructions: 86000000 cycles: 36948194 heartbeat IPC: 1.47155 cumulative IPC: 1.47251 (Simulation time: 0 hr 30 min 35 sec) 

Region of Interest Statistics
cpu0_DTLB TOTAL     ACCESS:    4411325  HIT:    4402496  MISS:       8829
cpu0_DTLB LOAD      ACCESS:    3549755  HIT:    3540926  MISS:       8829
cpu0_DTLB RFO       ACCESS:     861570  HIT:     861570  MISS:          0
cpu0_DTLB PREFETCH  ACCESS:          0  HIT:          0  MISS:          0
cpu0_DTLB WRITEBACK ACCESS:          0  HIT:          0  MISS:          0
cpu0_ITLB TOTAL     ACCESS:    3599256  HIT:    3599256  MISS:          0
cpu0_ITLB LOAD      ACCESS:    3599256  HIT:    3599256  MISS:          0
cpu0_ITLB RFO       ACCESS:          0  HIT:          0  MISS:          0
cpu0_ITLB PREFETCH  ACCESS:          0  HIT:          0  MISS:          0
cpu0_ITLB WRITEBACK ACCESS:          0  HIT:          0  MISS:          0
cpu0_STLB TOTAL     ACCESS:       8829  HIT:         63  MISS:       8766
cpu0_STLB LOAD      ACCESS:       8829  HIT:         63  MISS:       8766
cpu0_STLB RFO       ACCESS:          0  HIT:          0  MISS:          0
cpu0_STLB PREFETCH  ACCESS:          0  HIT:          0  MISS:          0
cpu0_STLB WRITEBACK ACCESS:          0  HIT:          0  MISS:          0
cpu0_L1D TOTAL     ACCESS:    2393246  HIT:    1832062  MISS:     561184
cpu0_L1D LOAD      ACCESS:    1486784  HIT:     925602  MISS:     561182
cpu0_L1D RFO       ACCESS:     897696  HIT:     897696  MISS:          0
cpu0_L1D PREFETCH  ACCESS:          0  HIT:          0  MISS:          0
cpu0_L1D WRITEBACK ACCESS:          0  HIT:          0  MISS:          0
cpu0_L2C TOTAL     ACCESS:     561184  HIT:         45  MISS:     561139
cpu0_L2C LOAD      ACCESS:     561182  HIT:         45  MISS:     561137
cpu0_L2C RFO       ACCESS:          0  HIT:          0  MISS:          0
cpu0_L2C PREFETCH  ACCESS:          0  HIT:          0  MISS:          0
cpu0_L2C WRITEBACK ACCESS:          0  HIT:          0  MISS:          0
LLC TOTAL     ACCESS:     561139  HIT:          7  MISS:     561132
LLC LOAD      ACCESS:     561137  HIT:          7  MISS:     561130
LLC RFO       ACCESS:          0  HIT:          0  MISS:          0
LLC PREFETCH  ACCESS:          0  HIT:          0  MISS:          0
LLC WRITEBACK ACCESS:          0  HIT:          0  MISS:          0
Heartbeat CPU 0 instructions: 88000001 cycles: 38306258 heartbeat IPC: 1.47269 cumulative IPC: 1.47252 (Simulation time: 0 hr 31 min 21 sec) 

Region of Interest Statistics
cpu0_DTLB TOTAL     ACCESS:    4656449  HIT:    4647129  MISS:       9320
cpu0_DTLB LOAD      ACCESS:    3747021  HIT:    3737701  MISS:       9320
cpu0_DTLB RFO       ACCESS:     909428  HIT:     909428  MISS:          0
cpu0_DTLB PREFETCH  ACCESS:          0  HIT:          0  MISS:          0
cpu0_DTLB WRITEBACK ACCESS:          0  HIT:          0  MISS:          0
cpu0_ITLB TOTAL     ACCESS:    3799217  HIT:    3799217  MISS:          0
cpu0_ITLB LOAD      ACCESS:    3799217  HIT:    3799217  MISS:          0
cpu0_ITLB RFO       ACCESS:          0  HIT:          0  MISS:          0
cpu0_ITLB PREFETCH  ACCESS:          0  HIT:          0  MISS:          0
cpu0_ITLB WRITEBACK ACCESS:          0  HIT:          0  MISS:          0
cpu0_STLB TOTAL     ACCESS:       9320  HIT:         67  MISS:       9253
cpu0_STLB LOAD      ACCESS:       9320  HIT:         67  MISS:       9253
cpu0_STLB RFO       ACCESS:          0  HIT:          0  MISS:          0
cpu0_STLB PREFETCH  ACCESS:          0  HIT:          0  MISS:          0
cpu0_STLB WRITEBACK ACCESS:          0  HIT:          0  MISS:          0
cpu0_L1D TOTAL     ACCESS:    2526216  HIT:    1933854  MISS:     592362
cpu0_L1D LOAD      ACCESS:    1569394  HIT:     977034  MISS:     592360
cpu0_L1D RFO       ACCESS:     947568  HIT:     947568  MISS:          0
cpu0_L1D PREFETCH  ACCESS:          0  HIT:          0  MISS:          0
cpu0_L1D WRITEBACK ACCESS:          0  HIT:          0  MISS:          0
cpu0_L2C TOTAL     ACCESS:     592362  HIT:         46  MISS:     592316
cpu0_L2C LOAD      ACCESS:     592360  HIT:         46  MISS:     592314
cpu0_L2C RFO       ACCESS:          0  HIT:          0  MISS:          0
cpu0_L2C PREFETCH  ACCESS:          0  HIT:          0  MISS:          0
cpu0_L2C WRITEBACK ACCESS:          0  HIT:          0  MISS:          0
LLC TOTAL     ACCESS:     592316  HIT:          8  MISS:     592308
LLC LOAD      ACCESS:     592314  HIT:          8  MISS:     592306
LLC RFO       ACCESS:          0  HIT:          0  MISS:          0
LLC PREFETCH  ACCESS:          0  HIT:          0  MISS:          0
LLC WRITEBACK ACCESS:          0  HIT:          0  MISS:          0
Heartbeat CPU 0 instructions: 90000003 cycles: 39665560 heartbeat IPC: 1.47134 cumulative IPC: 1.47246 (Simulation time: 0 hr 32 min 7 sec) 

Region of Interest Statistics
cpu0_DTLB TOTAL     ACCESS:    4901448  HIT:    4891637  MISS:       9811
cpu0_DTLB LOAD      ACCESS:    3944140  HIT:    3934329  MISS:       9811
cpu0_DTLB RFO       ACCESS:     957308  HIT:     957308  MISS:          0
cpu0_DTLB PREFETCH  ACCESS:          0  HIT:          0  MISS:          0
cpu0_DTLB WRITEBACK ACCESS:          0  HIT:          0  MISS:          0
cpu0_ITLB TOTAL     ACCESS:    3999193  HIT:    3999193  MISS:          0
cpu0_ITLB LOAD      ACCESS:    3999193  HIT:    3999193  MISS:          0
cpu0_ITLB RFO       ACCESS:          0  HIT:          0  MISS:          0
cpu0_ITLB PREFETCH  ACCESS:          0  HIT:          0  MISS:          0
cpu0_ITLB WRITEBACK ACCESS:          0  HIT:          0  MISS:          0
cpu0_STLB TOTAL     ACCESS:       9811  HIT:         70  MISS:       9741
cpu0_STLB LOAD      ACCESS:       9811  HIT:         70  MISS:       9741
cpu0_STLB RFO       ACCESS:          0  HIT:          0  MISS:          0
cpu0_STLB PREFETCH  ACCESS:          0  HIT:          0  MISS:          0
cpu0_STLB WRITEBACK ACCESS:          0  HIT:          0  MISS:          0
cpu0_L1D TOTAL     ACCESS:    2659178  HIT:    2035638  MISS:     623540
cpu0_L1D LOAD      ACCESS:    1651997  HIT:    1028460  MISS:     623537
cpu0_L1D RFO       ACCESS:     997440  HIT:     997440  MISS:          0
cpu0_L1D PREFETCH  ACCESS:          0  HIT:          0  MISS:          0
cpu0_L1D WRITEBACK ACCESS:          0  HIT:          0  MISS:          0
cpu0_L2C TOTAL     ACCESS:     623540  HIT:         49  MISS:     623491
cpu0_L2C LOAD      ACCESS:     623537  HIT:         49  MISS:     623488
cpu0_L2C RFO       ACCESS:          0  HIT:          0  MISS:          0
cpu0_L2C PREFETCH  ACCESS:          0  HIT:          0  MISS:          0
cpu0_L2C WRITEBACK ACCESS:          0  HIT:          0  MISS:          0
LLC TOTAL     ACCESS:     623491  HIT:          8  MISS:     623483
LLC LOAD      ACCESS:     623488  HIT:          8  MISS:     623480
LLC RFO       ACCESS:          0  HIT:          0  MISS:          0
LLC PREFETCH  ACCESS:          0  HIT:          0  MISS:          0
LLC WRITEBACK ACCESS:          0  HIT:          0  MISS:          0
Heartbeat CPU 0 instructions: 92000004 cycles: 41023876 heartbeat IPC: 1.47241 cumulative IPC: 1.47245 (Simulation time: 0 hr 32 min 58 sec) 

Region of Interest Statistics
cpu0_DTLB TOTAL     ACCESS:    5146509  HIT:    5136207  MISS:      10302
cpu0_DTLB LOAD      ACCESS:    4141336  HIT:    4131034  MISS:      10302
cpu0_DTLB RFO       ACCESS:    1005173  HIT:    1005173  MISS:          0
cpu0_DTLB PREFETCH  ACCESS:          0  HIT:          0  MISS:          0
cpu0_DTLB WRITEBACK ACCESS:          0  HIT:          0  MISS:          0
cpu0_ITLB TOTAL     ACCESS:    4199144  HIT:    4199144  MISS:          0
cpu0_ITLB LOAD      ACCESS:    4199144  HIT:    4199144  MISS:          0
cpu0_ITLB RFO       ACCESS:          0  HIT:          0  MISS:          0
cpu0_ITLB PREFETCH  ACCESS:          0  HIT:          0  MISS:          0
cpu0_ITLB WRITEBACK ACCESS:          0  HIT:          0  MISS:          0
cpu0_STLB TOTAL     ACCESS:      10302  HIT:         74  MISS:      10228
cpu0_STLB LOAD      ACCESS:      10302  HIT:         74  MISS:      10228
cpu0_STLB RFO       ACCESS:          0  HIT:          0  MISS:          0
cpu0_STLB PREFETCH  ACCESS:          0  HIT:          0  MISS:          0
cpu0_STLB WRITEBACK ACCESS:          0  HIT:          0  MISS:          0
cpu0_L1D TOTAL     ACCESS:    2792137  HIT:    2137417  MISS:     654720
cpu0_L1D LOAD      ACCESS:    1734597  HIT:    1079880  MISS:     654717
cpu0_L1D RFO       ACCESS:    1047312  HIT:    1047312  MISS:          0
cpu0_L1D PREFETCH  ACCESS:          0  HIT:          0  MISS:          0
cpu0_L1D WRITEBACK ACCESS:          0  HIT:          0  MISS:          0
cpu0_L2C TOTAL     ACCESS:     654720  HIT:         51  MISS:     654669
cpu0_L2C LOAD      ACCESS:     654717  HIT:         51  MISS:     654666
cpu0_L2C RFO       ACCESS:          0  HIT:          0  MISS:          0
cpu0_L2C PREFETCH  ACCESS:          0  HIT:          0  MISS:          0
cpu0_L2C WRITEBACK ACCESS:          0  HIT:          0  MISS:          0
LLC TOTAL     ACCESS:     654669  HIT:          9  MISS:     654660
LLC LOAD      ACCESS:     654666  HIT:          9  MISS:     654657
LLC RFO       ACCESS:          0  HIT:          0  MISS:          0
LLC PREFETCH  ACCESS:          0  HIT:          0  MISS:          0
LLC WRITEBACK ACCESS:          0  HIT:          0  MISS:          0
Heartbeat CPU 0 instructions: 94000004 cycles: 42381482 heartbeat IPC: 1.47318 cumulative IPC: 1.47249 (Simulation time: 0 hr 33 min 47 sec) 

Region of Interest Statistics
cpu0_DTLB TOTAL     ACCESS:    5391580  HIT:    5380788  MISS:      10792
cpu0_DTLB LOAD      ACCESS:    4338550  HIT:    4327758  MISS:      10792
cpu0_DTLB RFO       ACCESS:    1053030  HIT:    1053030  MISS:          0
cpu0_DTLB PREFETCH  ACCESS:          0  HIT:          0  MISS:          0
cpu0_DTLB WRITEBACK ACCESS:          0  HIT:          0  MISS:          0
cpu0_ITLB TOTAL     ACCESS:    4399096  HIT:    4399096  MISS:          0
cpu0_ITLB LOAD      ACCESS:    4399096  HIT:    4399096  MISS:          0
cpu0_ITLB RFO       ACCESS:          0  HIT:          0  MISS:          0
cpu0_ITLB PREFETCH  ACCESS:          0  HIT:          0  MISS:          0
cpu0_ITLB WRITEBACK ACCESS:          0  HIT:          0  MISS:          0
cpu0_STLB TOTAL     ACCESS:      10792  HIT:         77  MISS:      10715
cpu0_STLB LOAD      ACCESS:      10792  HIT:         77  MISS:      10715
cpu0_STLB RFO       ACCESS:          0  HIT:          0  MISS:          0
cpu0_STLB PREFETCH  ACCESS:          0  HIT:          0  MISS:          0
cpu0_STLB WRITEBACK ACCESS:          0  HIT:          0  MISS:          0
cpu0_L1D TOTAL     ACCESS:    2925086  HIT:    2239192  MISS:     685894
cpu0_L1D LOAD      ACCESS:    1817187  HIT:    1131296  MISS:     685891
cpu0_L1D RFO       ACCESS:    1097184  HIT:    1097184  MISS:          0
cpu0_L1D PREFETCH  ACCESS:          0  HIT:          0  MISS:          0
cpu0_L1D WRITEBACK ACCESS:          0  HIT:          0  MISS:          0
cpu0_L2C TOTAL     ACCESS:     685894  HIT:         52  MISS:     685842
cpu0_L2C LOAD      ACCESS:     685891  HIT:         52  MISS:     685839
cpu0_L2C RFO       ACCESS:          0  HIT:          0  MISS:          0
cpu0_L2C PREFETCH  ACCESS:          0  HIT:          0  MISS:          0
cpu0_L2C WRITEBACK ACCESS:          0  HIT:          0  MISS:          0
LLC TOTAL     ACCESS:     685842  HIT:         12  MISS:     685830
LLC LOAD      ACCESS:     685839  HIT:         12  MISS:     685827
LLC RFO       ACCESS:          0  HIT:          0  MISS:          0
LLC PREFETCH  ACCESS:          0  HIT:          0  MISS:          0
LLC WRITEBACK ACCESS:          0  HIT:          0  MISS:          0
Heartbeat CPU 0 instructions: 96000000 cycles: 43740285 heartbeat IPC: 1.47188 cumulative IPC: 1.47246 (Simulation time: 0 hr 34 min 30 sec) 

Region of Interest Statistics
cpu0_DTLB TOTAL     ACCESS:    5636646  HIT:    5625363  MISS:      11283
cpu0_DTLB LOAD      ACCESS:    4535745  HIT:    4524462  MISS:      11283
cpu0_DTLB RFO       ACCESS:    1100901  HIT:    1100901  MISS:          0
cpu0_DTLB PREFETCH  ACCESS:          0  HIT:          0  MISS:          0
cpu0_DTLB WRITEBACK ACCESS:          0  HIT:          0  MISS:          0
cpu0_ITLB TOTAL     ACCESS:    4599076  HIT:    4599076  MISS:          0
cpu0_ITLB LOAD      ACCESS:    4599076  HIT:    4599076  MISS:          0
cpu0_ITLB RFO       ACCESS:          0  HIT:          0  MISS:          0
cpu0_ITLB PREFETCH  ACCESS:          0  HIT:          0  MISS:          0
cpu0_ITLB WRITEBACK ACCESS:          0  HIT:          0  MISS:          0
cpu0_STLB TOTAL     ACCESS:      11283  HIT:         81  MISS:      11202
cpu0_STLB LOAD      ACCESS:      11283  HIT:         81  MISS:      11202
cpu0_STLB RFO       ACCESS:          0  HIT:          0  MISS:          0
cpu0_STLB PREFETCH  ACCESS:          0  HIT:          0  MISS:          0
cpu0_STLB WRITEBACK ACCESS:          0  HIT:          0  MISS:          0
cpu0_L1D TOTAL     ACCESS:    3058049  HIT:    2340976  MISS:     717073
cpu0_L1D LOAD      ACCESS:    1899791  HIT:    1182721  MISS:     717070
cpu0_L1D RFO       ACCESS:    1147056  HIT:    1147056  MISS:          0
cpu0_L1D PREFETCH  ACCESS:          0  HIT:          0  MISS:          0
cpu0_L1D WRITEBACK ACCESS:          0  HIT:          0  MISS:          0
cpu0_L2C TOTAL     ACCESS:     717073  HIT:         54  MISS:     717019
cpu0_L2C LOAD      ACCESS:     717070  HIT:         54  MISS:     717016
cpu0_L2C RFO       ACCESS:          0  HIT:          0  MISS:          0
cpu0_L2C PREFETCH  ACCESS:          0  HIT:          0  MISS:          0
cpu0_L2C WRITEBACK ACCESS:          0  HIT:          0  MISS:          0
LLC TOTAL     ACCESS:     717019  HIT:         13  MISS:     717006
LLC LOAD      ACCESS:     717016  HIT:         13  MISS:     717003
LLC RFO       ACCESS:          0  HIT:          0  MISS:          0
LLC PREFETCH  ACCESS:          0  HIT:          0  MISS:          0
LLC WRITEBACK ACCESS:          0  HIT:          0  MISS:          0
Heartbeat CPU 0 instructions: 98000000 cycles: 45097877 heartbeat IPC: 1.4732 cumulative IPC: 1.47249 (Simulation time: 0 hr 35 min 2 sec) 

Region of Interest Statistics
cpu0_DTLB TOTAL     ACCESS:    5881771  HIT:    5869998  MISS:      11773
cpu0_DTLB LOAD      ACCESS:    4733018  HIT:    4721245  MISS:      11773
cpu0_DTLB RFO       ACCESS:    1148753  HIT:    1148753  MISS:          0
cpu0_DTLB PREFETCH  ACCESS:          0  HIT:          0  MISS:          0
cpu0_DTLB WRITEBACK ACCESS:          0  HIT:          0  MISS:          0
cpu0_ITLB TOTAL     ACCESS:    4799030  HIT:    4799030  MISS:          0
cpu0_ITLB LOAD      ACCESS:    4799030  HIT:    4799030  MISS:          0
cpu0_ITLB RFO       ACCESS:          0  HIT:          0  MISS:          0
cpu0_ITLB PREFETCH  ACCESS:          0  HIT:          0  MISS:          0
cpu0_ITLB WRITEBACK ACCESS:          0  HIT:          0  MISS:          0
cpu0_STLB TOTAL     ACCESS:      11773  HIT:         84  MISS:      11689
cpu0_STLB LOAD      ACCESS:      11773  HIT:         84  MISS:      11689
cpu0_STLB RFO       ACCESS:          0  HIT:          0  MISS:          0
cpu0_STLB PREFETCH  ACCESS:          0  HIT:          0  MISS:          0
cpu0_STLB WRITEBACK ACCESS:          0  HIT:          0  MISS:          0
cpu0_L1D TOTAL     ACCESS:    3191007  HIT:    2442758  MISS:     748249
cpu0_L1D LOAD      ACCESS:    1982390  HIT:    1234144  MISS:     748246
cpu0_L1D RFO       ACCESS:    1196928  HIT:    1196928  MISS:          0
cpu0_L1D PREFETCH  ACCESS:          0  HIT:          0  MISS:          0
cpu0_L1D WRITEBACK ACCESS:          0  HIT:          0  MISS:          0
cpu0_L2C TOTAL     ACCESS:     748249  HIT:         56  MISS:     748193
cpu0_L2C LOAD      ACCESS:     748246  HIT:         56  MISS:     748190
cpu0_L2C RFO       ACCESS:          0  HIT:          0  MISS:          0
cpu0_L2C PREFETCH  ACCESS:          0  HIT:          0  MISS:          0
cpu0_L2C WRITEBACK ACCESS:          0  HIT:          0  MISS:          0
LLC TOTAL     ACCESS:     748193  HIT:         14  MISS:     748179
LLC LOAD      ACCESS:     748190  HIT:         14  MISS:     748176
LLC RFO       ACCESS:          0  HIT:          0  MISS:          0
LLC PREFETCH  ACCESS:          0  HIT:          0  MISS:          0
LLC WRITEBACK ACCESS:          0  HIT:          0  MISS:          0
Heartbeat CPU 0 instructions: 100000000 cycles: 46455985 heartbeat IPC: 1.47264 cumulative IPC: 1.4725 (Simulation time: 0 hr 35 min 27 sec) 

Region of Interest Statistics
cpu0_DTLB TOTAL     ACCESS:    6126842  HIT:    6114578  MISS:      12264
cpu0_DTLB LOAD      ACCESS:    4930229  HIT:    4917965  MISS:      12264
cpu0_DTLB RFO       ACCESS:    1196613  HIT:    1196613  MISS:          0
cpu0_DTLB PREFETCH  ACCESS:          0  HIT:          0  MISS:          0
cpu0_DTLB WRITEBACK ACCESS:          0  HIT:          0  MISS:          0
cpu0_ITLB TOTAL     ACCESS:    4998982  HIT:    4998982  MISS:          0
cpu0_ITLB LOAD      ACCESS:    4998982  HIT:    4998982  MISS:          0
cpu0_ITLB RFO       ACCESS:          0  HIT:          0  MISS:          0
cpu0_ITLB PREFETCH  ACCESS:          0  HIT:          0  MISS:          0
cpu0_ITLB WRITEBACK ACCESS:          0  HIT:          0  MISS:          0
cpu0_STLB TOTAL     ACCESS:      12264  HIT:         88  MISS:      12176
cpu0_STLB LOAD      ACCESS:      12264  HIT:         88  MISS:      12176
cpu0_STLB RFO       ACCESS:          0  HIT:          0  MISS:          0
cpu0_STLB PREFETCH  ACCESS:          0  HIT:          0  MISS:          0
cpu0_STLB WRITEBACK ACCESS:          0  HIT:          0  MISS:          0
cpu0_L1D TOTAL     ACCESS:    3323960  HIT:    2544534  MISS:     779426
cpu0_L1D LOAD      ACCESS:    2064984  HIT:    1285561  MISS:     779423
cpu0_L1D RFO       ACCESS:    1246800  HIT:    1246800  MISS:          0
cpu0_L1D PREFETCH  ACCESS:          0  HIT:          0  MISS:          0
cpu0_L1D WRITEBACK ACCESS:          0  HIT:          0  MISS:          0
cpu0_L2C TOTAL     ACCESS:     779426  HIT:         57  MISS:     779369
cpu0_L2C LOAD      ACCESS:     779423  HIT:         57  MISS:     779366
cpu0_L2C RFO       ACCESS:          0  HIT:          0  MISS:          0
cpu0_L2C PREFETCH  ACCESS:          0  HIT:          0  MISS:          0
cpu0_L2C WRITEBACK ACCESS:          0  HIT:          0  MISS:          0
LLC TOTAL     ACCESS:     779369  HIT:         15  MISS:     779354
LLC LOAD      ACCESS:     779366  HIT:         15  MISS:     779351
LLC RFO       ACCESS:          0  HIT:          0  MISS:          0
LLC PREFETCH  ACCESS:          0  HIT:          0  MISS:          0
LLC WRITEBACK ACCESS:          0  HIT:          0  MISS:          0
Heartbeat CPU 0 instructions: 102000001 cycles: 47814308 heartbeat IPC: 1.4724 cumulative IPC: 1.47249 (Simulation time: 0 hr 35 min 47 sec) 

Region of Interest Statistics
cpu0_DTLB TOTAL     ACCESS:    6371904  HIT:    6359149  MISS:      12755
cpu0_DTLB LOAD      ACCESS:    5127426  HIT:    5114671  MISS:      12755
cpu0_DTLB RFO       ACCESS:    1244478  HIT:    1244478  MISS:          0
cpu0_DTLB PREFETCH  ACCESS:          0  HIT:          0  MISS:          0
cpu0_DTLB WRITEBACK ACCESS:          0  HIT:          0  MISS:          0
cpu0_ITLB TOTAL     ACCESS:    5198940  HIT:    5198940  MISS:          0
cpu0_ITLB LOAD      ACCESS:    5198940  HIT:    5198940  MISS:          0
cpu0_ITLB RFO       ACCESS:          0  HIT:          0  MISS:          0
cpu0_ITLB PREFETCH  ACCESS:          0  HIT:          0  MISS:          0
cpu0_ITLB WRITEBACK ACCESS:          0  HIT:          0  MISS:          0
cpu0_STLB TOTAL     ACCESS:      12755  HIT:         92  MISS:      12663
cpu0_STLB LOAD      ACCESS:      12755  HIT:         92  MISS:      12663
cpu0_STLB RFO       ACCESS:          0  HIT:          0  MISS:          0
cpu0_STLB PREFETCH  ACCESS:          0  HIT:          0  MISS:          0
cpu0_STLB WRITEBACK ACCESS:          0  HIT:          0  MISS:          0
cpu0_L1D TOTAL     ACCESS:    3456922  HIT:    2646319  MISS:     810603
cpu0_L1D LOAD      ACCESS:    2147587  HIT:    1336987  MISS:     810600
cpu0_L1D RFO       ACCESS:    1296672  HIT:    1296672  MISS:          0
cpu0_L1D PREFETCH  ACCESS:          0  HIT:          0  MISS:          0
cpu0_L1D WRITEBACK ACCESS:          0  HIT:          0  MISS:          0
cpu0_L2C TOTAL     ACCESS:     810603  HIT:         61  MISS:     810542
cpu0_L2C LOAD      ACCESS:     810600  HIT:         61  MISS:     810539
cpu0_L2C RFO       ACCESS:          0  HIT:          0  MISS:          0
cpu0_L2C PREFETCH  ACCESS:          0  HIT:          0  MISS:          0
cpu0_L2C WRITEBACK ACCESS:          0  HIT:          0  MISS:          0
LLC TOTAL     ACCESS:     810542  HIT:         15  MISS:     810527
LLC LOAD      ACCESS:     810539  HIT:         15  MISS:     810524
LLC RFO       ACCESS:          0  HIT:          0  MISS:          0
LLC PREFETCH  ACCESS:          0  HIT:          0  MISS:          0
LLC WRITEBACK ACCESS:          0  HIT:          0  MISS:          0
Heartbeat CPU 0 instructions: 104000001 cycles: 49171989 heartbeat IPC: 1.4731 cumulative IPC: 1.47252 (Simulation time: 0 hr 36 min 10 sec) 

Region of Interest Statistics
cpu0_DTLB TOTAL     ACCESS:    6617038  HIT:    6603793  MISS:      13245
cpu0_DTLB LOAD      ACCESS:    5324700  HIT:    5311455  MISS:      13245
cpu0_DTLB RFO       ACCESS:    1292338  HIT:    1292338  MISS:          0
cpu0_DTLB PREFETCH  ACCESS:          0  HIT:          0  MISS:          0
cpu0_DTLB WRITEBACK ACCESS:          0  HIT:          0  MISS:          0
cpu0_ITLB TOTAL     ACCESS:    5398901  HIT:    5398901  MISS:          0
cpu0_ITLB LOAD      ACCESS:    5398901  HIT:    5398901  MISS:          0
cpu0_ITLB RFO       ACCESS:          0  HIT:          0  MISS:          0
cpu0_ITLB PREFETCH  ACCESS:          0  HIT:          0  MISS:          0
cpu0_ITLB WRITEBACK ACCESS:          0  HIT:          0  MISS:          0
cpu0_STLB TOTAL     ACCESS:      13245  HIT:         95  MISS:      13150
cpu0_STLB LOAD      ACCESS:      13245  HIT:         95  MISS:      13150
cpu0_STLB RFO       ACCESS:          0  HIT:          0  MISS:          0
cpu0_STLB PREFETCH  ACCESS:          0  HIT:          0  MISS:          0
cpu0_STLB WRITEBACK ACCESS:          0  HIT:          0  MISS:          0
cpu0_L1D TOTAL     ACCESS:    3589877  HIT:    2748098  MISS:     841779
cpu0_L1D LOAD      ACCESS:    2230183  HIT:    1388407  MISS:     841776
cpu0_L1D RFO       ACCESS:    1346544  HIT:    1346544  MISS:          0
cpu0_L1D PREFETCH  ACCESS:          0  HIT:          0  MISS:          0
cpu0_L1D WRITEBACK ACCESS:          0  HIT:          0  MISS:          0
cpu0_L2C TOTAL     ACCESS:     841779  HIT:         62  MISS:     841717
cpu0_L2C LOAD      ACCESS:     841776  HIT:         62  MISS:     841714
cpu0_L2C RFO       ACCESS:          0  HIT:          0  MISS:          0
cpu0_L2C PREFETCH  ACCESS:          0  HIT:          0  MISS:          0
cpu0_L2C WRITEBACK ACCESS:          0  HIT:          0  MISS:          0
LLC TOTAL     ACCESS:     841717  HIT:         15  MISS:     841702
LLC LOAD      ACCESS:     841714  HIT:         15  MISS:     841699
LLC RFO       ACCESS:          0  HIT:          0  MISS:          0
LLC PREFETCH  ACCESS:          0  HIT:          0  MISS:          0
LLC WRITEBACK ACCESS:          0  HIT:          0  MISS:          0
Heartbeat CPU 0 instructions: 106000002 cycles: 50530473 heartbeat IPC: 1.47223 cumulative IPC: 1.47251 (Simulation time: 0 hr 36 min 26 sec) 

Region of Interest Statistics
cpu0_DTLB TOTAL     ACCESS:    6862139  HIT:    6848403  MISS:      13736
cpu0_DTLB LOAD      ACCESS:    5521957  HIT:    5508221  MISS:      13736
cpu0_DTLB RFO       ACCESS:    1340182  HIT:    1340182  MISS:          0
cpu0_DTLB PREFETCH  ACCESS:          0  HIT:          0  MISS:          0
cpu0_DTLB WRITEBACK ACCESS:          0  HIT:          0  MISS:          0
cpu0_ITLB TOTAL     ACCESS:    5598863  HIT:    5598863  MISS:          0
cpu0_ITLB LOAD      ACCESS:    5598863  HIT:    5598863  MISS:          0
cpu0_ITLB RFO       ACCESS:          0  HIT:          0  MISS:          0
cpu0_ITLB PREFETCH  ACCESS:          0  HIT:          0  MISS:          0
cpu0_ITLB WRITEBACK ACCESS:          0  HIT:          0  MISS:          0
cpu0_STLB TOTAL     ACCESS:      13736  HIT:         99  MISS:      13637
cpu0_STLB LOAD      ACCESS:      13736  HIT:         99  MISS:      13637
cpu0_STLB RFO       ACCESS:          0  HIT:          0  MISS:          0
cpu0_STLB PREFETCH  ACCESS:          0  HIT:          0  MISS:          0
cpu0_STLB WRITEBACK ACCESS:          0  HIT:          0  MISS:          0
cpu0_L1D TOTAL     ACCESS:    3722837  HIT:    2849879  MISS:     872958
cpu0_L1D LOAD      ACCESS:    2312784  HIT:    1439830  MISS:     872954
cpu0_L1D RFO       ACCESS:    1396416  HIT:    1396416  MISS:          0
cpu0_L1D PREFETCH  ACCESS:          0  HIT:          0  MISS:          0
cpu0_L1D WRITEBACK ACCESS:          0  HIT:          0  MISS:          0
cpu0_L2C TOTAL     ACCESS:     872958  HIT:         64  MISS:     872894
cpu0_L2C LOAD      ACCESS:     872954  HIT:         64  MISS:     872890
cpu0_L2C RFO       ACCESS:          0  HIT:          0  MISS:          0
cpu0_L2C PREFETCH  ACCESS:          0  HIT:          0  MISS:          0
cpu0_L2C WRITEBACK ACCESS:          0  HIT:          0  MISS:          0
LLC TOTAL     ACCESS:     872894  HIT:         15  MISS:     872879
LLC LOAD      ACCESS:     872890  HIT:         15  MISS:     872875
LLC RFO       ACCESS:          0  HIT:          0  MISS:          0
LLC PREFETCH  ACCESS:          0  HIT:          0  MISS:          0
LLC WRITEBACK ACCESS:          0  HIT:          0  MISS:          0
Heartbeat CPU 0 instructions: 108000001 cycles: 51888264 heartbeat IPC: 1.47298 cumulative IPC: 1.47252 (Simulation time: 0 hr 36 min 43 sec) 

Region of Interest Statistics
cpu0_DTLB TOTAL     ACCESS:    7107242  HIT:    7093016  MISS:      14226
cpu0_DTLB LOAD      ACCESS:    5719211  HIT:    5704985  MISS:      14226
cpu0_DTLB RFO       ACCESS:    1388031  HIT:    1388031  MISS:          0
cpu0_DTLB PREFETCH  ACCESS:          0  HIT:          0  MISS:          0
cpu0_DTLB WRITEBACK ACCESS:          0  HIT:          0  MISS:          0
cpu0_ITLB TOTAL     ACCESS:    5798816  HIT:    5798816  MISS:          0
cpu0_ITLB LOAD      ACCESS:    5798816  HIT:    5798816  MISS:          0
cpu0_ITLB RFO       ACCESS:          0  HIT:          0  MISS:          0
cpu0_ITLB PREFETCH  ACCESS:          0  HIT:          0  MISS:          0
cpu0_ITLB WRITEBACK ACCESS:          0  HIT:          0  MISS:          0
cpu0_STLB TOTAL     ACCESS:      14226  HIT:        102  MISS:      14124
cpu0_STLB LOAD      ACCESS:      14226  HIT:        102  MISS:      14124
cpu0_STLB RFO       ACCESS:          0  HIT:          0  MISS:          0
cpu0_STLB PREFETCH  ACCESS:          0  HIT:          0  MISS:          0
cpu0_STLB WRITEBACK ACCESS:          0  HIT:          0  MISS:          0
cpu0_L1D TOTAL     ACCESS:    3855796  HIT:    2951662  MISS:     904134
cpu0_L1D LOAD      ACCESS:    2395384  HIT:    1491254  MISS:     904130
cpu0_L1D RFO       ACCESS:    1446288  HIT:    1446288  MISS:          0
cpu0_L1D PREFETCH  ACCESS:          0  HIT:          0  MISS:          0
cpu0_L1D WRITEBACK ACCESS:          0  HIT:          0  MISS:          0
cpu0_L2C TOTAL     ACCESS:     904134  HIT:         66  MISS:     904068
cpu0_L2C LOAD      ACCESS:     904130  HIT:         66  MISS:     904064
cpu0_L2C RFO       ACCESS:          0  HIT:          0  MISS:          0
cpu0_L2C PREFETCH  ACCESS:          0  HIT:          0  MISS:          0
cpu0_L2C WRITEBACK ACCESS:          0  HIT:          0  MISS:          0
LLC TOTAL     ACCESS:     904068  HIT:         15  MISS:     904053
LLC LOAD      ACCESS:     904064  HIT:         15  MISS:     904049
LLC RFO       ACCESS:          0  HIT:          0  MISS:          0
LLC PREFETCH  ACCESS:          0  HIT:          0  MISS:          0
LLC WRITEBACK ACCESS:          0  HIT:          0  MISS:          0
Heartbeat CPU 0 instructions: 110000002 cycles: 53246740 heartbeat IPC: 1.47224 cumulative IPC: 1.47251 (Simulation time: 0 hr 37 min 0 sec) 

Region of Interest Statistics
cpu0_DTLB TOTAL     ACCESS:    7352313  HIT:    7337596  MISS:      14717
cpu0_DTLB LOAD      ACCESS:    5916412  HIT:    5901695  MISS:      14717
cpu0_DTLB RFO       ACCESS:    1435901  HIT:    1435901  MISS:          0
cpu0_DTLB PREFETCH  ACCESS:          0  HIT:          0  MISS:          0
cpu0_DTLB WRITEBACK ACCESS:          0  HIT:          0  MISS:          0
cpu0_ITLB TOTAL     ACCESS:    5998783  HIT:    5998783  MISS:          0
cpu0_ITLB LOAD      ACCESS:    5998783  HIT:    5998783  MISS:          0
cpu0_ITLB RFO       ACCESS:          0  HIT:          0  MISS:          0
cpu0_ITLB PREFETCH  ACCESS:          0  HIT:          0  MISS:          0
cpu0_ITLB WRITEBACK ACCESS:          0  HIT:          0  MISS:          0
cpu0_STLB TOTAL     ACCESS:      14717  HIT:        106  MISS:      14611
cpu0_STLB LOAD      ACCESS:      14717  HIT:        106  MISS:      14611
cpu0_STLB RFO       ACCESS:          0  HIT:          0  MISS:          0
cpu0_STLB PREFETCH  ACCESS:          0  HIT:          0  MISS:          0
cpu0_STLB WRITEBACK ACCESS:          0  HIT:          0  MISS:          0
cpu0_L1D TOTAL     ACCESS:    3988756  HIT:    3053444  MISS:     935312
cpu0_L1D LOAD      ACCESS:    2477985  HIT:    1542677  MISS:     935308
cpu0_L1D RFO       ACCESS:    1496160  HIT:    1496160  MISS:          0
cpu0_L1D PREFETCH  ACCESS:          0  HIT:          0  MISS:          0
cpu0_L1D WRITEBACK ACCESS:          0  HIT:          0  MISS:          0
cpu0_L2C TOTAL     ACCESS:     935312  HIT:         68  MISS:     935244
cpu0_L2C LOAD      ACCESS:     935308  HIT:         68  MISS:     935240
cpu0_L2C RFO       ACCESS:          0  HIT:          0  MISS:          0
cpu0_L2C PREFETCH  ACCESS:          0  HIT:          0  MISS:          0
cpu0_L2C WRITEBACK ACCESS:          0  HIT:          0  MISS:          0
LLC TOTAL     ACCESS:     935244  HIT:         16  MISS:     935228
LLC LOAD      ACCESS:     935240  HIT:         16  MISS:     935224
LLC RFO       ACCESS:          0  HIT:          0  MISS:          0
LLC PREFETCH  ACCESS:          0  HIT:          0  MISS:          0
LLC WRITEBACK ACCESS:          0  HIT:          0  MISS:          0
Heartbeat CPU 0 instructions: 112000002 cycles: 54604781 heartbeat IPC: 1.47271 cumulative IPC: 1.47252 (Simulation time: 0 hr 37 min 17 sec) 

Region of Interest Statistics
cpu0_DTLB TOTAL     ACCESS:    7597410  HIT:    7582203  MISS:      15207
cpu0_DTLB LOAD      ACCESS:    6113639  HIT:    6098432  MISS:      15207
cpu0_DTLB RFO       ACCESS:    1483771  HIT:    1483771  MISS:          0
cpu0_DTLB PREFETCH  ACCESS:          0  HIT:          0  MISS:          0
cpu0_DTLB WRITEBACK ACCESS:          0  HIT:          0  MISS:          0
cpu0_ITLB TOTAL     ACCESS:    6198742  HIT:    6198742  MISS:          0
cpu0_ITLB LOAD      ACCESS:    6198742  HIT:    6198742  MISS:          0
cpu0_ITLB RFO       ACCESS:          0  HIT:          0  MISS:          0
cpu0_ITLB PREFETCH  ACCESS:          0  HIT:          0  MISS:          0
cpu0_ITLB WRITEBACK ACCESS:          0  HIT:          0  MISS:          0
cpu0_STLB TOTAL     ACCESS:      15207  HIT:        109  MISS:      15098
cpu0_STLB LOAD      ACCESS:      15207  HIT:        109  MISS:      15098
cpu0_STLB RFO       ACCESS:          0  HIT:          0  MISS:          0
cpu0_STLB PREFETCH  ACCESS:          0  HIT:          0  MISS:          0
cpu0_STLB WRITEBACK ACCESS:          0  HIT:          0  MISS:          0
cpu0_L1D TOTAL     ACCESS:    4121714  HIT:    3155226  MISS:     966488
cpu0_L1D LOAD      ACCESS:    2560584  HIT:    1594100  MISS:     966484
cpu0_L1D RFO       ACCESS:    1546032  HIT:    1546032  MISS:          0
cpu0_L1D PREFETCH  ACCESS:          0  HIT:          0  MISS:          0
cpu0_L1D WRITEBACK ACCESS:          0  HIT:          0  MISS:          0
cpu0_L2C TOTAL     ACCESS:     966488  HIT:         69  MISS:     966419
cpu0_L2C LOAD      ACCESS:     966484  HIT:         69  MISS:     966415
cpu0_L2C RFO       ACCESS:          0  HIT:          0  MISS:          0
cpu0_L2C PREFETCH  ACCESS:          0  HIT:          0  MISS:          0
cpu0_L2C WRITEBACK ACCESS:          0  HIT:          0  MISS:          0
LLC TOTAL     ACCESS:     966419  HIT:         18  MISS:     966401
LLC LOAD      ACCESS:     966415  HIT:         18  MISS:     966397
LLC RFO       ACCESS:          0  HIT:          0  MISS:          0
LLC PREFETCH  ACCESS:          0  HIT:          0  MISS:          0
LLC WRITEBACK ACCESS:          0  HIT:          0  MISS:          0
Heartbeat CPU 0 instructions: 114000003 cycles: 55963040 heartbeat IPC: 1.47247 cumulative IPC: 1.47252 (Simulation time: 0 hr 37 min 37 sec) 

Region of Interest Statistics
cpu0_DTLB TOTAL     ACCESS:    7842438  HIT:    7826740  MISS:      15698
cpu0_DTLB LOAD      ACCESS:    6310782  HIT:    6295084  MISS:      15698
cpu0_DTLB RFO       ACCESS:    1531656  HIT:    1531656  MISS:          0
cpu0_DTLB PREFETCH  ACCESS:          0  HIT:          0  MISS:          0
cpu0_DTLB WRITEBACK ACCESS:          0  HIT:          0  MISS:          0
cpu0_ITLB TOTAL     ACCESS:    6398705  HIT:    6398705  MISS:          0
cpu0_ITLB LOAD      ACCESS:    6398705  HIT:    6398705  MISS:          0
cpu0_ITLB RFO       ACCESS:          0  HIT:          0  MISS:          0
cpu0_ITLB PREFETCH  ACCESS:          0  HIT:          0  MISS:          0
cpu0_ITLB WRITEBACK ACCESS:          0  HIT:          0  MISS:          0
cpu0_STLB TOTAL     ACCESS:      15698  HIT:        113  MISS:      15585
cpu0_STLB LOAD      ACCESS:      15698  HIT:        113  MISS:      15585
cpu0_STLB RFO       ACCESS:          0  HIT:          0  MISS:          0
cpu0_STLB PREFETCH  ACCESS:          0  HIT:          0  MISS:          0
cpu0_STLB WRITEBACK ACCESS:          0  HIT:          0  MISS:          0
cpu0_L1D TOTAL     ACCESS:    4254670  HIT:    3257004  MISS:     997666
cpu0_L1D LOAD      ACCESS:    2643181  HIT:    1645519  MISS:     997662
cpu0_L1D RFO       ACCESS:    1595904  HIT:    1595904  MISS:          0
cpu0_L1D PREFETCH  ACCESS:          0  HIT:          0  MISS:          0
cpu0_L1D WRITEBACK ACCESS:          0  HIT:          0  MISS:          0
cpu0_L2C TOTAL     ACCESS:     997666  HIT:         75  MISS:     997591
cpu0_L2C LOAD      ACCESS:     997662  HIT:         75  MISS:     997587
cpu0_L2C RFO       ACCESS:          0  HIT:          0  MISS:          0
cpu0_L2C PREFETCH  ACCESS:          0  HIT:          0  MISS:          0
cpu0_L2C WRITEBACK ACCESS:          0  HIT:          0  MISS:          0
LLC TOTAL     ACCESS:     997591  HIT:         18  MISS:     997573
LLC LOAD      ACCESS:     997587  HIT:         18  MISS:     997569
LLC RFO       ACCESS:          0  HIT:          0  MISS:          0
LLC PREFETCH  ACCESS:          0  HIT:          0  MISS:          0
LLC WRITEBACK ACCESS:          0  HIT:          0  MISS:          0
Heartbeat CPU 0 instructions: 116000003 cycles: 57321627 heartbeat IPC: 1.47212 cumulative IPC: 1.47251 (Simulation time: 0 hr 37 min 53 sec) 

Region of Interest Statistics
cpu0_DTLB TOTAL     ACCESS:    8087471  HIT:    8071283  MISS:      16188
cpu0_DTLB LOAD      ACCESS:    6507942  HIT:    6491754  MISS:      16188
cpu0_DTLB RFO       ACCESS:    1579529  HIT:    1579529  MISS:          0
cpu0_DTLB PREFETCH  ACCESS:          0  HIT:          0  MISS:          0
cpu0_DTLB WRITEBACK ACCESS:          0  HIT:          0  MISS:          0
cpu0_ITLB TOTAL     ACCESS:    6598663  HIT:    6598663  MISS:          0
[...]
cpu0_L1D RFO       ACCESS:    3375822  HIT:    3375820  MISS:          2
cpu0_L1D PREFETCH  ACCESS:          0  HIT:          0  MISS:          0
cpu0_L1D WRITEBACK ACCESS:          0  HIT:          0  MISS:          0
cpu0_L2C TOTAL     ACCESS:    2181393  HIT:        173  MISS:    2181220
cpu0_L2C LOAD      ACCESS:    2181376  HIT:        172  MISS:    2181204
cpu0_L2C RFO       ACCESS:          2  HIT:          0  MISS:          2
cpu0_L2C PREFETCH  ACCESS:          0  HIT:          0  MISS:          0
cpu0_L2C WRITEBACK ACCESS:          4  HIT:          1  MISS:          3
LLC TOTAL     ACCESS:    2181221  HIT:         29  MISS:    2181192
LLC LOAD      ACCESS:    2181204  HIT:         29  MISS:    2181175
LLC RFO       ACCESS:          2  HIT:          0  MISS:          2
LLC PREFETCH  ACCESS:          0  HIT:          0  MISS:          0
LLC WRITEBACK ACCESS:          4  HIT:          0  MISS:          4
Heartbeat CPU 0 instructions: 190000000 cycles: 108956442 heartbeat IPC: 0.843239 cumulative IPC: 1.45143 (Simulation time: 0 hr 59 min 21 sec) 

Region of Interest Statistics
cpu0_DTLB TOTAL     ACCESS:   17345853  HIT:   17310684  MISS:      35169
cpu0_DTLB LOAD      ACCESS:   14106814  HIT:   14071645  MISS:      35169
cpu0_DTLB RFO       ACCESS:    3239039  HIT:    3239039  MISS:          0
cpu0_DTLB PREFETCH  ACCESS:          0  HIT:          0  MISS:          0
cpu0_DTLB WRITEBACK ACCESS:          0  HIT:          0  MISS:          0
cpu0_ITLB TOTAL     ACCESS:   14137879  HIT:   14137878  MISS:          1
cpu0_ITLB LOAD      ACCESS:   14137879  HIT:   14137878  MISS:          1
cpu0_ITLB RFO       ACCESS:          0  HIT:          0  MISS:          0
cpu0_ITLB PREFETCH  ACCESS:          0  HIT:          0  MISS:          0
cpu0_ITLB WRITEBACK ACCESS:          0  HIT:          0  MISS:          0
cpu0_L1I TOTAL     ACCESS:         10  HIT:          3  MISS:          7
cpu0_L1I LOAD      ACCESS:         10  HIT:          3  MISS:          7
cpu0_L1I RFO       ACCESS:          0  HIT:          0  MISS:          0
cpu0_L1I PREFETCH  ACCESS:          0  HIT:          0  MISS:          0
cpu0_L1I WRITEBACK ACCESS:          0  HIT:          0  MISS:          0
cpu0_STLB TOTAL     ACCESS:      35170  HIT:        246  MISS:      34924
cpu0_STLB LOAD      ACCESS:      35170  HIT:        246  MISS:      34924
cpu0_STLB RFO       ACCESS:          0  HIT:          0  MISS:          0
cpu0_STLB PREFETCH  ACCESS:          0  HIT:          0  MISS:          0
cpu0_STLB WRITEBACK ACCESS:          0  HIT:          0  MISS:          0
cpu0_L1D TOTAL     ACCESS:    9238705  HIT:    7003139  MISS:    2235566
cpu0_L1D LOAD      ACCESS:    5827958  HIT:    3592405  MISS:    2235553
cpu0_L1D RFO       ACCESS:    3375822  HIT:    3375820  MISS:          2
cpu0_L1D PREFETCH  ACCESS:          0  HIT:          0  MISS:          0
cpu0_L1D WRITEBACK ACCESS:          0  HIT:          0  MISS:          0
cpu0_L2C TOTAL     ACCESS:    2235577  HIT:        173  MISS:    2235404
cpu0_L2C LOAD      ACCESS:    2235560  HIT:        172  MISS:    2235388
cpu0_L2C RFO       ACCESS:          2  HIT:          0  MISS:          2
cpu0_L2C PREFETCH  ACCESS:          0  HIT:          0  MISS:          0
cpu0_L2C WRITEBACK ACCESS:          4  HIT:          1  MISS:          3
LLC TOTAL     ACCESS:    2235405  HIT:         29  MISS:    2235376
LLC LOAD      ACCESS:    2235388  HIT:         29  MISS:    2235359
LLC RFO       ACCESS:          2  HIT:          0  MISS:          2
LLC PREFETCH  ACCESS:          0  HIT:          0  MISS:          0
LLC WRITEBACK ACCESS:          4  HIT:          0  MISS:          4
Heartbeat CPU 0 instructions: 192000003 cycles: 111328618 heartbeat IPC: 0.843109 cumulative IPC: 1.43683 (Simulation time: 1 hr 1 min 9 sec) 

Region of Interest Statistics
cpu0_DTLB TOTAL     ACCESS:   17618412  HIT:   17582392  MISS:      36020
cpu0_DTLB LOAD      ACCESS:   14379373  HIT:   14343353  MISS:      36020
cpu0_DTLB RFO       ACCESS:    3239039  HIT:    3239039  MISS:          0
cpu0_DTLB PREFETCH  ACCESS:          0  HIT:          0  MISS:          0
cpu0_DTLB WRITEBACK ACCESS:          0  HIT:          0  MISS:          0
cpu0_ITLB TOTAL     ACCESS:   14398711  HIT:   14398710  MISS:          1
cpu0_ITLB LOAD      ACCESS:   14398711  HIT:   14398710  MISS:          1
cpu0_ITLB RFO       ACCESS:          0  HIT:          0  MISS:          0
cpu0_ITLB PREFETCH  ACCESS:          0  HIT:          0  MISS:          0
cpu0_ITLB WRITEBACK ACCESS:          0  HIT:          0  MISS:          0
cpu0_L1I TOTAL     ACCESS:         10  HIT:          3  MISS:          7
cpu0_L1I LOAD      ACCESS:         10  HIT:          3  MISS:          7
cpu0_L1I RFO       ACCESS:          0  HIT:          0  MISS:          0
cpu0_L1I PREFETCH  ACCESS:          0  HIT:          0  MISS:          0
cpu0_L1I WRITEBACK ACCESS:          0  HIT:          0  MISS:          0
cpu0_STLB TOTAL     ACCESS:      36021  HIT:        249  MISS:      35772
cpu0_STLB LOAD      ACCESS:      36021  HIT:        249  MISS:      35772
cpu0_STLB RFO       ACCESS:          0  HIT:          0  MISS:          0
cpu0_STLB PREFETCH  ACCESS:          0  HIT:          0  MISS:          0
cpu0_STLB WRITEBACK ACCESS:          0  HIT:          0  MISS:          0
cpu0_L1D TOTAL     ACCESS:    9342694  HIT:    7052942  MISS:    2289752
cpu0_L1D LOAD      ACCESS:    5931100  HIT:    3641362  MISS:    2289738
cpu0_L1D RFO       ACCESS:    3375822  HIT:    3375820  MISS:          2
cpu0_L1D PREFETCH  ACCESS:          0  HIT:          0  MISS:          0
cpu0_L1D WRITEBACK ACCESS:          0  HIT:          0  MISS:          0
cpu0_L2C TOTAL     ACCESS:    2289763  HIT:        173  MISS:    2289590
cpu0_L2C LOAD      ACCESS:    2289745  HIT:        172  MISS:    2289573
cpu0_L2C RFO       ACCESS:          2  HIT:          0  MISS:          2
cpu0_L2C PREFETCH  ACCESS:          0  HIT:          0  MISS:          0
cpu0_L2C WRITEBACK ACCESS:          4  HIT:          1  MISS:          3
LLC TOTAL     ACCESS:    2289591  HIT:         29  MISS:    2289562
LLC LOAD      ACCESS:    2289573  HIT:         29  MISS:    2289544
LLC RFO       ACCESS:          2  HIT:          0  MISS:          2
LLC PREFETCH  ACCESS:          0  HIT:          0  MISS:          0
LLC WRITEBACK ACCESS:          4  HIT:          0  MISS:          4
Heartbeat CPU 0 instructions: 194000001 cycles: 113700581 heartbeat IPC: 0.843183 cumulative IPC: 1.42292 (Simulation time: 1 hr 2 min 56 sec) 

Region of Interest Statistics
cpu0_DTLB TOTAL     ACCESS:   17891027  HIT:   17854158  MISS:      36869
cpu0_DTLB LOAD      ACCESS:   14651988  HIT:   14615119  MISS:      36869
cpu0_DTLB RFO       ACCESS:    3239039  HIT:    3239039  MISS:          0
cpu0_DTLB PREFETCH  ACCESS:          0  HIT:          0  MISS:          0
cpu0_DTLB WRITEBACK ACCESS:          0  HIT:          0  MISS:          0
cpu0_ITLB TOTAL     ACCESS:   14659545  HIT:   14659544  MISS:          1
cpu0_ITLB LOAD      ACCESS:   14659545  HIT:   14659544  MISS:          1
cpu0_ITLB RFO       ACCESS:          0  HIT:          0  MISS:          0
cpu0_ITLB PREFETCH  ACCESS:          0  HIT:          0  MISS:          0
cpu0_ITLB WRITEBACK ACCESS:          0  HIT:          0  MISS:          0
cpu0_L1I TOTAL     ACCESS:         10  HIT:          3  MISS:          7
cpu0_L1I LOAD      ACCESS:         10  HIT:          3  MISS:          7
cpu0_L1I RFO       ACCESS:          0  HIT:          0  MISS:          0
cpu0_L1I PREFETCH  ACCESS:          0  HIT:          0  MISS:          0
cpu0_L1I WRITEBACK ACCESS:          0  HIT:          0  MISS:          0
cpu0_STLB TOTAL     ACCESS:      36870  HIT:        252  MISS:      36618
cpu0_STLB LOAD      ACCESS:      36870  HIT:        252  MISS:      36618
cpu0_STLB RFO       ACCESS:          0  HIT:          0  MISS:          0
cpu0_STLB PREFETCH  ACCESS:          0  HIT:          0  MISS:          0
cpu0_STLB WRITEBACK ACCESS:          0  HIT:          0  MISS:          0
cpu0_L1D TOTAL     ACCESS:    9446676  HIT:    7102739  MISS:    2343937
cpu0_L1D LOAD      ACCESS:    6034236  HIT:    3690313  MISS:    2343923
cpu0_L1D RFO       ACCESS:    3375822  HIT:    3375820  MISS:          2
cpu0_L1D PREFETCH  ACCESS:          0  HIT:          0  MISS:          0
cpu0_L1D WRITEBACK ACCESS:          0  HIT:          0  MISS:          0
cpu0_L2C TOTAL     ACCESS:    2343948  HIT:        173  MISS:    2343775
cpu0_L2C LOAD      ACCESS:    2343930  HIT:        172  MISS:    2343758
cpu0_L2C RFO       ACCESS:          2  HIT:          0  MISS:          2
cpu0_L2C PREFETCH  ACCESS:          0  HIT:          0  MISS:          0
cpu0_L2C WRITEBACK ACCESS:          4  HIT:          1  MISS:          3
LLC TOTAL     ACCESS:    2343776  HIT:         29  MISS:    2343747
LLC LOAD      ACCESS:    2343758  HIT:         29  MISS:    2343729
LLC RFO       ACCESS:          2  HIT:          0  MISS:          2
LLC PREFETCH  ACCESS:          0  HIT:          0  MISS:          0
LLC WRITEBACK ACCESS:          4  HIT:          0  MISS:          4
Heartbeat CPU 0 instructions: 196000003 cycles: 116072379 heartbeat IPC: 0.843243 cumulative IPC: 1.40964 (Simulation time: 1 hr 4 min 42 sec) 

Region of Interest Statistics
cpu0_DTLB TOTAL     ACCESS:   18163603  HIT:   18125885  MISS:      37718
cpu0_DTLB LOAD      ACCESS:   14924564  HIT:   14886846  MISS:      37718
cpu0_DTLB RFO       ACCESS:    3239039  HIT:    3239039  MISS:          0
cpu0_DTLB PREFETCH  ACCESS:          0  HIT:          0  MISS:          0
cpu0_DTLB WRITEBACK ACCESS:          0  HIT:          0  MISS:          0
cpu0_ITLB TOTAL     ACCESS:   14920378  HIT:   14920377  MISS:          1
cpu0_ITLB LOAD      ACCESS:   14920378  HIT:   14920377  MISS:          1
cpu0_ITLB RFO       ACCESS:          0  HIT:          0  MISS:          0
cpu0_ITLB PREFETCH  ACCESS:          0  HIT:          0  MISS:          0
cpu0_ITLB WRITEBACK ACCESS:          0  HIT:          0  MISS:          0
cpu0_L1I TOTAL     ACCESS:         10  HIT:          3  MISS:          7
cpu0_L1I LOAD      ACCESS:         10  HIT:          3  MISS:          7
cpu0_L1I RFO       ACCESS:          0  HIT:          0  MISS:          0
cpu0_L1I PREFETCH  ACCESS:          0  HIT:          0  MISS:          0
cpu0_L1I WRITEBACK ACCESS:          0  HIT:          0  MISS:          0
cpu0_STLB TOTAL     ACCESS:      37719  HIT:        255  MISS:      37464
cpu0_STLB LOAD      ACCESS:      37719  HIT:        255  MISS:      37464
cpu0_STLB RFO       ACCESS:          0  HIT:          0  MISS:          0
cpu0_STLB PREFETCH  ACCESS:          0  HIT:          0  MISS:          0
cpu0_STLB WRITEBACK ACCESS:          0  HIT:          0  MISS:          0
cpu0_L1D TOTAL     ACCESS:    9550656  HIT:    7152535  MISS:    2398121
cpu0_L1D LOAD      ACCESS:    6137370  HIT:    3739263  MISS:    2398107
cpu0_L1D RFO       ACCESS:    3375822  HIT:    3375820  MISS:          2
cpu0_L1D PREFETCH  ACCESS:          0  HIT:          0  MISS:          0
cpu0_L1D WRITEBACK ACCESS:          0  HIT:          0  MISS:          0
cpu0_L2C TOTAL     ACCESS:    2398132  HIT:        173  MISS:    2397959
cpu0_L2C LOAD      ACCESS:    2398114  HIT:        172  MISS:    2397942
cpu0_L2C RFO       ACCESS:          2  HIT:          0  MISS:          2
cpu0_L2C PREFETCH  ACCESS:          0  HIT:          0  MISS:          0
cpu0_L2C WRITEBACK ACCESS:          4  HIT:          1  MISS:          3
LLC TOTAL     ACCESS:    2397960  HIT:         29  MISS:    2397931
LLC LOAD      ACCESS:    2397942  HIT:         29  MISS:    2397913
LLC RFO       ACCESS:          2  HIT:          0  MISS:          2
LLC PREFETCH  ACCESS:          0  HIT:          0  MISS:          0
LLC WRITEBACK ACCESS:          4  HIT:          0  MISS:          4
Heartbeat CPU 0 instructions: 198000002 cycles: 118444401 heartbeat IPC: 0.843162 cumulative IPC: 1.39696 (Simulation time: 1 hr 6 min 32 sec) 

Region of Interest Statistics
cpu0_DTLB TOTAL     ACCESS:   18436171  HIT:   18397604  MISS:      38567
cpu0_DTLB LOAD      ACCESS:   15197132  HIT:   15158565  MISS:      38567
cpu0_DTLB RFO       ACCESS:    3239039  HIT:    3239039  MISS:          0
cpu0_DTLB PREFETCH  ACCESS:          0  HIT:          0  MISS:          0
cpu0_DTLB WRITEBACK ACCESS:          0  HIT:          0  MISS:          0
cpu0_ITLB TOTAL     ACCESS:   15181215  HIT:   15181214  MISS:          1
cpu0_ITLB LOAD      ACCESS:   15181215  HIT:   15181214  MISS:          1
cpu0_ITLB RFO       ACCESS:          0  HIT:          0  MISS:          0
cpu0_ITLB PREFETCH  ACCESS:          0  HIT:          0  MISS:          0
cpu0_ITLB WRITEBACK ACCESS:          0  HIT:          0  MISS:          0
cpu0_L1I TOTAL     ACCESS:         10  HIT:          3  MISS:          7
cpu0_L1I LOAD      ACCESS:         10  HIT:          3  MISS:          7
cpu0_L1I RFO       ACCESS:          0  HIT:          0  MISS:          0
cpu0_L1I PREFETCH  ACCESS:          0  HIT:          0  MISS:          0
cpu0_L1I WRITEBACK ACCESS:          0  HIT:          0  MISS:          0
cpu0_STLB TOTAL     ACCESS:      38568  HIT:        258  MISS:      38310
cpu0_STLB LOAD      ACCESS:      38568  HIT:        258  MISS:      38310
cpu0_STLB RFO       ACCESS:          0  HIT:          0  MISS:          0
cpu0_STLB PREFETCH  ACCESS:          0  HIT:          0  MISS:          0
cpu0_STLB WRITEBACK ACCESS:          0  HIT:          0  MISS:          0
cpu0_L1D TOTAL     ACCESS:    9654656  HIT:    7202353  MISS:    2452303
cpu0_L1D LOAD      ACCESS:    6240524  HIT:    3788235  MISS:    2452289
cpu0_L1D RFO       ACCESS:    3375822  HIT:    3375820  MISS:          2
cpu0_L1D PREFETCH  ACCESS:          0  HIT:          0  MISS:          0
cpu0_L1D WRITEBACK ACCESS:          0  HIT:          0  MISS:          0
cpu0_L2C TOTAL     ACCESS:    2452314  HIT:        173  MISS:    2452141
cpu0_L2C LOAD      ACCESS:    2452296  HIT:        172  MISS:    2452124
cpu0_L2C RFO       ACCESS:          2  HIT:          0  MISS:          2
cpu0_L2C PREFETCH  ACCESS:          0  HIT:          0  MISS:          0
cpu0_L2C WRITEBACK ACCESS:          4  HIT:          1  MISS:          3
LLC TOTAL     ACCESS:    2452142  HIT:         29  MISS:    2452113
LLC LOAD      ACCESS:    2452124  HIT:         29  MISS:    2452095
LLC RFO       ACCESS:          2  HIT:          0  MISS:          2
LLC PREFETCH  ACCESS:          0  HIT:          0  MISS:          0
LLC WRITEBACK ACCESS:          4  HIT:          0  MISS:          4
Heartbeat CPU 0 instructions: 200000004 cycles: 120816516 heartbeat IPC: 0.84313 cumulative IPC: 1.38483 (Simulation time: 1 hr 8 min 18 sec) 

Region of Interest Statistics
cpu0_DTLB TOTAL     ACCESS:   18708732  HIT:   18669314  MISS:      39418
cpu0_DTLB LOAD      ACCESS:   15469693  HIT:   15430275  MISS:      39418
cpu0_DTLB RFO       ACCESS:    3239039  HIT:    3239039  MISS:          0
cpu0_DTLB PREFETCH  ACCESS:          0  HIT:          0  MISS:          0
cpu0_DTLB WRITEBACK ACCESS:          0  HIT:          0  MISS:          0
cpu0_ITLB TOTAL     ACCESS:   15442040  HIT:   15442039  MISS:          1
cpu0_ITLB LOAD      ACCESS:   15442040  HIT:   15442039  MISS:          1
cpu0_ITLB RFO       ACCESS:          0  HIT:          0  MISS:          0
cpu0_ITLB PREFETCH  ACCESS:          0  HIT:          0  MISS:          0
cpu0_ITLB WRITEBACK ACCESS:          0  HIT:          0  MISS:          0
cpu0_L1I TOTAL     ACCESS:         10  HIT:          3  MISS:          7
cpu0_L1I LOAD      ACCESS:         10  HIT:          3  MISS:          7
cpu0_L1I RFO       ACCESS:          0  HIT:          0  MISS:          0
cpu0_L1I PREFETCH  ACCESS:          0  HIT:          0  MISS:          0
cpu0_L1I WRITEBACK ACCESS:          0  HIT:          0  MISS:          0
cpu0_STLB TOTAL     ACCESS:      39419  HIT:        261  MISS:      39158
cpu0_STLB LOAD      ACCESS:      39419  HIT:        261  MISS:      39158
cpu0_STLB RFO       ACCESS:          0  HIT:          0  MISS:          0
cpu0_STLB PREFETCH  ACCESS:          0  HIT:          0  MISS:          0
cpu0_STLB WRITEBACK ACCESS:          0  HIT:          0  MISS:          0
cpu0_L1D TOTAL     ACCESS:    9758604  HIT:    7252117  MISS:    2506487
cpu0_L1D LOAD      ACCESS:    6343624  HIT:    3837152  MISS:    2506472
cpu0_L1D RFO       ACCESS:    3375822  HIT:    3375820  MISS:          2
cpu0_L1D PREFETCH  ACCESS:          0  HIT:          0  MISS:          0
cpu0_L1D WRITEBACK ACCESS:          0  HIT:          0  MISS:          0
cpu0_L2C TOTAL     ACCESS:    2506498  HIT:        176  MISS:    2506322
cpu0_L2C LOAD      ACCESS:    2506479  HIT:        175  MISS:    2506304
cpu0_L2C RFO       ACCESS:          2  HIT:          0  MISS:          2
cpu0_L2C PREFETCH  ACCESS:          0  HIT:          0  MISS:          0
cpu0_L2C WRITEBACK ACCESS:          4  HIT:          1  MISS:          3
LLC TOTAL     ACCESS:    2506323  HIT:         29  MISS:    2506294
LLC LOAD      ACCESS:    2506304  HIT:         29  MISS:    2506275
LLC RFO       ACCESS:          2  HIT:          0  MISS:          2
LLC PREFETCH  ACCESS:          0  HIT:          0  MISS:          0
LLC WRITEBACK ACCESS:          4  HIT:          0  MISS:          4
Heartbeat CPU 0 instructions: 202000002 cycles: 123188212 heartbeat IPC: 0.843278 cumulative IPC: 1.37323 (Simulation time: 1 hr 10 min 1 sec) 

Region of Interest Statistics
cpu0_DTLB TOTAL     ACCESS:   18981346  HIT:   18941079  MISS:      40267
cpu0_DTLB LOAD      ACCESS:   15742307  HIT:   15702040  MISS:      40267
cpu0_DTLB RFO       ACCESS:    3239039  HIT:    3239039  MISS:          0
cpu0_DTLB PREFETCH  ACCESS:          0  HIT:          0  MISS:          0
cpu0_DTLB WRITEBACK ACCESS:          0  HIT:          0  MISS:          0
cpu0_ITLB TOTAL     ACCESS:   15702881  HIT:   15702880  MISS:          1
cpu0_ITLB LOAD      ACCESS:   15702881  HIT:   15702880  MISS:          1
cpu0_ITLB RFO       ACCESS:          0  HIT:          0  MISS:          0
cpu0_ITLB PREFETCH  ACCESS:          0  HIT:          0  MISS:          0
cpu0_ITLB WRITEBACK ACCESS:          0  HIT:          0  MISS:          0
cpu0_L1I TOTAL     ACCESS:         10  HIT:          3  MISS:          7
cpu0_L1I LOAD      ACCESS:         10  HIT:          3  MISS:          7
cpu0_L1I RFO       ACCESS:          0  HIT:          0  MISS:          0
cpu0_L1I PREFETCH  ACCESS:          0  HIT:          0  MISS:          0
cpu0_L1I WRITEBACK ACCESS:          0  HIT:          0  MISS:          0
cpu0_STLB TOTAL     ACCESS:      40268  HIT:        264  MISS:      40004
cpu0_STLB LOAD      ACCESS:      40268  HIT:        264  MISS:      40004
cpu0_STLB RFO       ACCESS:          0  HIT:          0  MISS:          0
cpu0_STLB PREFETCH  ACCESS:          0  HIT:          0  MISS:          0
cpu0_STLB WRITEBACK ACCESS:          0  HIT:          0  MISS:          0
cpu0_L1D TOTAL     ACCESS:    9862580  HIT:    7301908  MISS:    2560672
cpu0_L1D LOAD      ACCESS:    6446754  HIT:    3886097  MISS:    2560657
cpu0_L1D RFO       ACCESS:    3375822  HIT:    3375820  MISS:          2
cpu0_L1D PREFETCH  ACCESS:          0  HIT:          0  MISS:          0
cpu0_L1D WRITEBACK ACCESS:          0  HIT:          0  MISS:          0
cpu0_L2C TOTAL     ACCESS:    2560683  HIT:        176  MISS:    2560507
cpu0_L2C LOAD      ACCESS:    2560664  HIT:        175  MISS:    2560489
cpu0_L2C RFO       ACCESS:          2  HIT:          0  MISS:          2
cpu0_L2C PREFETCH  ACCESS:          0  HIT:          0  MISS:          0
cpu0_L2C WRITEBACK ACCESS:          4  HIT:          1  MISS:          3
LLC TOTAL     ACCESS:    2560508  HIT:         29  MISS:    2560479
LLC LOAD      ACCESS:    2560489  HIT:         29  MISS:    2560460
LLC RFO       ACCESS:          2  HIT:          0  MISS:          2
LLC PREFETCH  ACCESS:          0  HIT:          0  MISS:          0
LLC WRITEBACK ACCESS:          4  HIT:          0  MISS:          4
